
---------- Begin Simulation Statistics ----------
final_tick                                 5195989500                       # Number of ticks from beginning of simulation (restored from checkpoints and never reset)
host_inst_rate                                  67856                       # Simulator instruction rate (inst/s)
host_mem_usage                                1207076                       # Number of bytes of host memory used
host_op_rate                                   121744                       # Simulator op (including micro ops) rate (op/s)
host_seconds                                   285.38                       # Real time elapsed on the host
host_tick_rate                               18207195                       # Simulator tick rate (ticks/s)
sim_freq                                 1000000000000                       # Frequency of simulated ticks
sim_insts                                    19364844                       # Number of instructions simulated
sim_ops                                      34743451                       # Number of ops (including micro ops) simulated
sim_seconds                                  0.005196                       # Number of seconds simulated
sim_ticks                                  5195989500                       # Number of ticks simulated
system.cpu.cc_regfile_reads                  10421222                       # number of cc regfile reads
system.cpu.cc_regfile_writes                  5848986                       # number of cc regfile writes
system.cpu.committedInsts                    19364844                       # Number of Instructions Simulated
system.cpu.committedOps                      34743451                       # Number of Ops (including micro ops) Simulated
system.cpu.cpi                               0.536642                       # CPI: Cycles Per Instruction
system.cpu.cpi_total                         0.536642                       # CPI: Total CPI of All Threads
system.cpu.fp_regfile_reads                   2189506                       # number of floating regfile reads
system.cpu.fp_regfile_writes                  3623596                       # number of floating regfile writes
system.cpu.idleCycles                           93837                       # Total number of cycles that the CPU has spent unscheduled due to idling
system.cpu.iew.branchMispredicts                18572                       # Number of branch mispredicts detected at execute
system.cpu.iew.exec_branches                  3318444                       # Number of branches executed
system.cpu.iew.exec_nop                             0                       # number of nop insts executed
system.cpu.iew.exec_rate                     3.389258                       # Inst execution rate
system.cpu.iew.exec_refs                     12151587                       # number of memory reference insts executed
system.cpu.iew.exec_stores                    4096302                       # Number of stores executed
system.cpu.iew.exec_swp                             0                       # number of swp insts executed
system.cpu.iew.iewBlockCycles                  189713                       # Number of cycles IEW is blocking
system.cpu.iew.iewDispLoadInsts               8089959                       # Number of dispatched load instructions
system.cpu.iew.iewDispNonSpecInsts                 47                       # Number of dispatched non-speculative instructions
system.cpu.iew.iewDispSquashedInsts               403                       # Number of squashed instructions skipped by dispatch
system.cpu.iew.iewDispStoreInsts              4121968                       # Number of dispatched store instructions
system.cpu.iew.iewDispatchedInsts            35479099                       # Number of instructions dispatched to IQ
system.cpu.iew.iewExecLoadInsts               8055285                       # Number of load instructions executed
system.cpu.iew.iewExecSquashedInsts             46936                       # Number of squashed instructions skipped in execute
system.cpu.iew.iewExecutedInsts              35221102                       # Number of executed instructions
system.cpu.iew.iewIQFullEvents                    966                       # Number of times the IQ has become full, causing a stall
system.cpu.iew.iewIdleCycles                        0                       # Number of cycles IEW is idle
system.cpu.iew.iewLSQFullEvents                121163                       # Number of times the LSQ has become full, causing a stall
system.cpu.iew.iewSquashCycles                  18188                       # Number of cycles IEW is squashing
system.cpu.iew.iewUnblockCycles                124520                       # Number of cycles IEW is unblocking
system.cpu.iew.memOrderViolationEvents            520                       # Number of memory order violations
system.cpu.iew.predictedNotTakenIncorrect        13399                       # Number of branches that were predicted not taken incorrectly
system.cpu.iew.predictedTakenIncorrect           5173                       # Number of branches that were predicted taken incorrectly
system.cpu.iew.wb_consumers                  33392253                       # num instructions consuming a value
system.cpu.iew.wb_count                      35187572                       # cumulative count of insts written-back
system.cpu.iew.wb_fanout                     0.713619                       # average fanout of values written-back
system.cpu.iew.wb_producers                  23829346                       # num instructions producing a value
system.cpu.iew.wb_rate                       3.386032                       # insts written-back per cycle
system.cpu.iew.wb_sent                       35201547                       # cumulative count of insts sent to commit
system.cpu.int_regfile_reads                 55688805                       # number of integer regfile reads
system.cpu.int_regfile_writes                24192384                       # number of integer regfile writes
system.cpu.ipc                               1.863441                       # IPC: Instructions Per Cycle
system.cpu.ipc_total                         1.863441                       # IPC: Total IPC of All Threads
system.cpu.iq.FU_type_0::No_OpClass            100606      0.29%      0.29% # Type of FU issued
system.cpu.iq.FU_type_0::IntAlu              20334588     57.66%     57.94% # Type of FU issued
system.cpu.iq.FU_type_0::IntMult               518597      1.47%     59.41% # Type of FU issued
system.cpu.iq.FU_type_0::IntDiv                 54287      0.15%     59.57% # Type of FU issued
system.cpu.iq.FU_type_0::FloatAdd             1522285      4.32%     63.88% # Type of FU issued
system.cpu.iq.FU_type_0::FloatCmp                   0      0.00%     63.88% # Type of FU issued
system.cpu.iq.FU_type_0::FloatCvt                  80      0.00%     63.88% # Type of FU issued
system.cpu.iq.FU_type_0::FloatMult                  0      0.00%     63.88% # Type of FU issued
system.cpu.iq.FU_type_0::FloatMultAcc               0      0.00%     63.88% # Type of FU issued
system.cpu.iq.FU_type_0::FloatDiv                   0      0.00%     63.88% # Type of FU issued
system.cpu.iq.FU_type_0::FloatMisc                  0      0.00%     63.88% # Type of FU issued
system.cpu.iq.FU_type_0::FloatSqrt                  0      0.00%     63.88% # Type of FU issued
system.cpu.iq.FU_type_0::SimdAdd                  473      0.00%     63.88% # Type of FU issued
system.cpu.iq.FU_type_0::SimdAddAcc                 0      0.00%     63.88% # Type of FU issued
system.cpu.iq.FU_type_0::SimdAlu                21296      0.06%     63.95% # Type of FU issued
system.cpu.iq.FU_type_0::SimdCmp                    0      0.00%     63.95% # Type of FU issued
system.cpu.iq.FU_type_0::SimdCvt                11166      0.03%     63.98% # Type of FU issued
system.cpu.iq.FU_type_0::SimdMisc               27940      0.08%     64.06% # Type of FU issued
system.cpu.iq.FU_type_0::SimdMult                   0      0.00%     64.06% # Type of FU issued
system.cpu.iq.FU_type_0::SimdMultAcc                0      0.00%     64.06% # Type of FU issued
system.cpu.iq.FU_type_0::SimdShift                501      0.00%     64.06% # Type of FU issued
system.cpu.iq.FU_type_0::SimdShiftAcc               0      0.00%     64.06% # Type of FU issued
system.cpu.iq.FU_type_0::SimdDiv                    0      0.00%     64.06% # Type of FU issued
system.cpu.iq.FU_type_0::SimdSqrt                   0      0.00%     64.06% # Type of FU issued
system.cpu.iq.FU_type_0::SimdFloatAdd               0      0.00%     64.06% # Type of FU issued
system.cpu.iq.FU_type_0::SimdFloatAlu               0      0.00%     64.06% # Type of FU issued
system.cpu.iq.FU_type_0::SimdFloatCmp               0      0.00%     64.06% # Type of FU issued
system.cpu.iq.FU_type_0::SimdFloatCvt          508532      1.44%     65.50% # Type of FU issued
system.cpu.iq.FU_type_0::SimdFloatDiv               0      0.00%     65.50% # Type of FU issued
system.cpu.iq.FU_type_0::SimdFloatMisc              0      0.00%     65.50% # Type of FU issued
system.cpu.iq.FU_type_0::SimdFloatMult              0      0.00%     65.50% # Type of FU issued
system.cpu.iq.FU_type_0::SimdFloatMultAcc            0      0.00%     65.50% # Type of FU issued
system.cpu.iq.FU_type_0::SimdFloatSqrt              0      0.00%     65.50% # Type of FU issued
system.cpu.iq.FU_type_0::SimdReduceAdd              0      0.00%     65.50% # Type of FU issued
system.cpu.iq.FU_type_0::SimdReduceAlu              0      0.00%     65.50% # Type of FU issued
system.cpu.iq.FU_type_0::SimdReduceCmp              0      0.00%     65.50% # Type of FU issued
system.cpu.iq.FU_type_0::SimdFloatReduceAdd            0      0.00%     65.50% # Type of FU issued
system.cpu.iq.FU_type_0::SimdFloatReduceCmp            0      0.00%     65.50% # Type of FU issued
system.cpu.iq.FU_type_0::SimdAes                    0      0.00%     65.50% # Type of FU issued
system.cpu.iq.FU_type_0::SimdAesMix                 0      0.00%     65.50% # Type of FU issued
system.cpu.iq.FU_type_0::SimdSha1Hash               0      0.00%     65.50% # Type of FU issued
system.cpu.iq.FU_type_0::SimdSha1Hash2              0      0.00%     65.50% # Type of FU issued
system.cpu.iq.FU_type_0::SimdSha256Hash             0      0.00%     65.50% # Type of FU issued
system.cpu.iq.FU_type_0::SimdSha256Hash2            0      0.00%     65.50% # Type of FU issued
system.cpu.iq.FU_type_0::SimdShaSigma2              0      0.00%     65.50% # Type of FU issued
system.cpu.iq.FU_type_0::SimdShaSigma3              0      0.00%     65.50% # Type of FU issued
system.cpu.iq.FU_type_0::SimdPredAlu                0      0.00%     65.50% # Type of FU issued
system.cpu.iq.FU_type_0::MemRead              6014215     17.05%     82.55% # Type of FU issued
system.cpu.iq.FU_type_0::MemWrite             3065361      8.69%     91.24% # Type of FU issued
system.cpu.iq.FU_type_0::FloatMemRead         2052660      5.82%     97.06% # Type of FU issued
system.cpu.iq.FU_type_0::FloatMemWrite        1035451      2.94%    100.00% # Type of FU issued
system.cpu.iq.FU_type_0::IprAccess                  0      0.00%    100.00% # Type of FU issued
system.cpu.iq.FU_type_0::InstPrefetch               0      0.00%    100.00% # Type of FU issued
system.cpu.iq.FU_type_0::total               35268038                       # Type of FU issued
system.cpu.iq.fp_alu_accesses                 5197663                       # Number of floating point alu accesses
system.cpu.iq.fp_inst_queue_reads            10386399                       # Number of floating instruction queue reads
system.cpu.iq.fp_inst_queue_wakeup_accesses      5174654                       # Number of floating instruction queue wakeup accesses
system.cpu.iq.fp_inst_queue_writes            5230522                       # Number of floating instruction queue writes
system.cpu.iq.fu_busy_cnt                      907879                       # FU busy when requested
system.cpu.iq.fu_busy_rate                   0.025742                       # FU busy rate (busy events/executed inst)
system.cpu.iq.fu_full::No_OpClass                   0      0.00%      0.00% # attempts to use FU when none available
system.cpu.iq.fu_full::IntAlu                  555408     61.18%     61.18% # attempts to use FU when none available
system.cpu.iq.fu_full::IntMult                      0      0.00%     61.18% # attempts to use FU when none available
system.cpu.iq.fu_full::IntDiv                       0      0.00%     61.18% # attempts to use FU when none available
system.cpu.iq.fu_full::FloatAdd                     0      0.00%     61.18% # attempts to use FU when none available
system.cpu.iq.fu_full::FloatCmp                     0      0.00%     61.18% # attempts to use FU when none available
system.cpu.iq.fu_full::FloatCvt                     0      0.00%     61.18% # attempts to use FU when none available
system.cpu.iq.fu_full::FloatMult                    0      0.00%     61.18% # attempts to use FU when none available
system.cpu.iq.fu_full::FloatMultAcc                 0      0.00%     61.18% # attempts to use FU when none available
system.cpu.iq.fu_full::FloatDiv                     0      0.00%     61.18% # attempts to use FU when none available
system.cpu.iq.fu_full::FloatMisc                    0      0.00%     61.18% # attempts to use FU when none available
system.cpu.iq.fu_full::FloatSqrt                    0      0.00%     61.18% # attempts to use FU when none available
system.cpu.iq.fu_full::SimdAdd                      0      0.00%     61.18% # attempts to use FU when none available
system.cpu.iq.fu_full::SimdAddAcc                   0      0.00%     61.18% # attempts to use FU when none available
system.cpu.iq.fu_full::SimdAlu                   1010      0.11%     61.29% # attempts to use FU when none available
system.cpu.iq.fu_full::SimdCmp                      0      0.00%     61.29% # attempts to use FU when none available
system.cpu.iq.fu_full::SimdCvt                     18      0.00%     61.29% # attempts to use FU when none available
system.cpu.iq.fu_full::SimdMisc                     5      0.00%     61.29% # attempts to use FU when none available
system.cpu.iq.fu_full::SimdMult                     0      0.00%     61.29% # attempts to use FU when none available
system.cpu.iq.fu_full::SimdMultAcc                  0      0.00%     61.29% # attempts to use FU when none available
system.cpu.iq.fu_full::SimdShift                   16      0.00%     61.29% # attempts to use FU when none available
system.cpu.iq.fu_full::SimdShiftAcc                 0      0.00%     61.29% # attempts to use FU when none available
system.cpu.iq.fu_full::SimdDiv                      0      0.00%     61.29% # attempts to use FU when none available
system.cpu.iq.fu_full::SimdSqrt                     0      0.00%     61.29% # attempts to use FU when none available
system.cpu.iq.fu_full::SimdFloatAdd                 0      0.00%     61.29% # attempts to use FU when none available
system.cpu.iq.fu_full::SimdFloatAlu                 0      0.00%     61.29% # attempts to use FU when none available
system.cpu.iq.fu_full::SimdFloatCmp                 0      0.00%     61.29% # attempts to use FU when none available
system.cpu.iq.fu_full::SimdFloatCvt                 0      0.00%     61.29% # attempts to use FU when none available
system.cpu.iq.fu_full::SimdFloatDiv                 0      0.00%     61.29% # attempts to use FU when none available
system.cpu.iq.fu_full::SimdFloatMisc                0      0.00%     61.29% # attempts to use FU when none available
system.cpu.iq.fu_full::SimdFloatMult                0      0.00%     61.29% # attempts to use FU when none available
system.cpu.iq.fu_full::SimdFloatMultAcc             0      0.00%     61.29% # attempts to use FU when none available
system.cpu.iq.fu_full::SimdFloatSqrt                0      0.00%     61.29% # attempts to use FU when none available
system.cpu.iq.fu_full::SimdReduceAdd                0      0.00%     61.29% # attempts to use FU when none available
system.cpu.iq.fu_full::SimdReduceAlu                0      0.00%     61.29% # attempts to use FU when none available
system.cpu.iq.fu_full::SimdReduceCmp                0      0.00%     61.29% # attempts to use FU when none available
system.cpu.iq.fu_full::SimdFloatReduceAdd            0      0.00%     61.29% # attempts to use FU when none available
system.cpu.iq.fu_full::SimdFloatReduceCmp            0      0.00%     61.29% # attempts to use FU when none available
system.cpu.iq.fu_full::SimdAes                      0      0.00%     61.29% # attempts to use FU when none available
system.cpu.iq.fu_full::SimdAesMix                   0      0.00%     61.29% # attempts to use FU when none available
system.cpu.iq.fu_full::SimdSha1Hash                 0      0.00%     61.29% # attempts to use FU when none available
system.cpu.iq.fu_full::SimdSha1Hash2                0      0.00%     61.29% # attempts to use FU when none available
system.cpu.iq.fu_full::SimdSha256Hash               0      0.00%     61.29% # attempts to use FU when none available
system.cpu.iq.fu_full::SimdSha256Hash2              0      0.00%     61.29% # attempts to use FU when none available
system.cpu.iq.fu_full::SimdShaSigma2                0      0.00%     61.29% # attempts to use FU when none available
system.cpu.iq.fu_full::SimdShaSigma3                0      0.00%     61.29% # attempts to use FU when none available
system.cpu.iq.fu_full::SimdPredAlu                  0      0.00%     61.29% # attempts to use FU when none available
system.cpu.iq.fu_full::MemRead                 339692     37.42%     98.71% # attempts to use FU when none available
system.cpu.iq.fu_full::MemWrite                  3764      0.41%     99.12% # attempts to use FU when none available
system.cpu.iq.fu_full::FloatMemRead              3006      0.33%     99.45% # attempts to use FU when none available
system.cpu.iq.fu_full::FloatMemWrite             4960      0.55%    100.00% # attempts to use FU when none available
system.cpu.iq.fu_full::IprAccess                    0      0.00%    100.00% # attempts to use FU when none available
system.cpu.iq.fu_full::InstPrefetch                 0      0.00%    100.00% # attempts to use FU when none available
system.cpu.iq.int_alu_accesses               30877648                       # Number of integer alu accesses
system.cpu.iq.int_inst_queue_reads           71359229                       # Number of integer instruction queue reads
system.cpu.iq.int_inst_queue_wakeup_accesses     30012918                       # Number of integer instruction queue wakeup accesses
system.cpu.iq.int_inst_queue_writes          30984732                       # Number of integer instruction queue writes
system.cpu.iq.iqInstsAdded                   35479050                       # Number of instructions added to the IQ (excludes non-spec)
system.cpu.iq.iqInstsIssued                  35268038                       # Number of instructions issued
system.cpu.iq.iqNonSpecInstsAdded                  49                       # Number of non-speculative instructions added to the IQ
system.cpu.iq.iqSquashedInstsExamined          735642                       # Number of squashed instructions iterated over during squash; mainly for profiling
system.cpu.iq.iqSquashedInstsIssued              3530                       # Number of squashed instructions issued
system.cpu.iq.iqSquashedNonSpecRemoved             13                       # Number of squashed non-spec instructions that were removed
system.cpu.iq.iqSquashedOperandsExamined       920785                       # Number of squashed operands that are examined and possibly removed from graph
system.cpu.iq.issued_per_cycle::samples      10298143                       # Number of insts issued each cycle
system.cpu.iq.issued_per_cycle::mean         3.424699                       # Number of insts issued each cycle
system.cpu.iq.issued_per_cycle::stdev        1.933976                       # Number of insts issued each cycle
system.cpu.iq.issued_per_cycle::underflows            0      0.00%      0.00% # Number of insts issued each cycle
system.cpu.iq.issued_per_cycle::0             1271726     12.35%     12.35% # Number of insts issued each cycle
system.cpu.iq.issued_per_cycle::1              371623      3.61%     15.96% # Number of insts issued each cycle
system.cpu.iq.issued_per_cycle::2             1713373     16.64%     32.60% # Number of insts issued each cycle
system.cpu.iq.issued_per_cycle::3             1390040     13.50%     46.09% # Number of insts issued each cycle
system.cpu.iq.issued_per_cycle::4             2403262     23.34%     69.43% # Number of insts issued each cycle
system.cpu.iq.issued_per_cycle::5             1603127     15.57%     85.00% # Number of insts issued each cycle
system.cpu.iq.issued_per_cycle::6             1245451     12.09%     97.09% # Number of insts issued each cycle
system.cpu.iq.issued_per_cycle::7              198168      1.92%     99.02% # Number of insts issued each cycle
system.cpu.iq.issued_per_cycle::8              101373      0.98%    100.00% # Number of insts issued each cycle
system.cpu.iq.issued_per_cycle::overflows            0      0.00%    100.00% # Number of insts issued each cycle
system.cpu.iq.issued_per_cycle::min_value            0                       # Number of insts issued each cycle
system.cpu.iq.issued_per_cycle::max_value            8                       # Number of insts issued each cycle
system.cpu.iq.issued_per_cycle::total        10298143                       # Number of insts issued each cycle
system.cpu.iq.rate                           3.393775                       # Inst issue rate
system.cpu.iq.vec_alu_accesses                      0                       # Number of vector alu accesses
system.cpu.iq.vec_inst_queue_reads                  0                       # Number of vector instruction queue reads
system.cpu.iq.vec_inst_queue_wakeup_accesses            0                       # Number of vector instruction queue wakeup accesses
system.cpu.iq.vec_inst_queue_writes                 0                       # Number of vector instruction queue writes
system.cpu.memDep0.conflictingLoads           2571182                       # Number of conflicting loads.
system.cpu.memDep0.conflictingStores           859578                       # Number of conflicting stores.
system.cpu.memDep0.insertedLoads              8089959                       # Number of loads inserted to the mem dependence unit.
system.cpu.memDep0.insertedStores             4121968                       # Number of stores inserted to the mem dependence unit.
system.cpu.misc_regfile_reads                18267684                       # number of misc regfile reads
system.cpu.misc_regfile_writes                     36                       # number of misc regfile writes
system.cpu.numCycles                         10391980                       # number of cpu cycles simulated
system.cpu.numWorkItemsCompleted                    0                       # number of work items this cpu completed
system.cpu.numWorkItemsStarted                      0                       # number of work items this cpu started
system.cpu.timesIdled                             925                       # Number of times that the entire CPU went into an idle state and unscheduled itself
system.cpu.workload.numSyscalls                  1034                       # Number of system calls
system.membus.snoop_filter.hit_multi_requests            0                       # Number of requests hitting in the snoop filter with multiple (>1) holders of the requested data.
system.membus.snoop_filter.hit_multi_snoops            0                       # Number of snoops hitting in the snoop filter with multiple (>1) holders of the requested data.
system.membus.snoop_filter.hit_single_requests          340                       # Number of requests hitting in the snoop filter with a single holder of the requested data.
system.membus.snoop_filter.hit_single_snoops            0                       # Number of snoops hitting in the snoop filter with a single holder of the requested data.
system.membus.snoop_filter.tot_requests          7403                       # Total number of requests made to the snoop filter.
system.membus.snoop_filter.tot_snoops               0                       # Total number of snoops made to the snoop filter.
system.tol2bus.snoop_filter.hit_multi_requests           11                       # Number of requests hitting in the snoop filter with multiple (>1) holders of the requested data.
system.tol2bus.snoop_filter.hit_multi_snoops            0                       # Number of snoops hitting in the snoop filter with multiple (>1) holders of the requested data.
system.tol2bus.snoop_filter.hit_single_requests         8983                       # Number of requests hitting in the snoop filter with a single holder of the requested data.
system.tol2bus.snoop_filter.hit_single_snoops          212                       # Number of snoops hitting in the snoop filter with a single holder of the requested data.
system.tol2bus.snoop_filter.tot_requests        19424                       # Total number of requests made to the snoop filter.
system.tol2bus.snoop_filter.tot_snoops            212                       # Total number of snoops made to the snoop filter.
system.clk_domain.clock                           500                       # Clock period in ticks
system.cpu.branchPred.lookups                 3405625                       # Number of BP lookups
system.cpu.branchPred.condPredicted           1658087                       # Number of conditional branches predicted
system.cpu.branchPred.condIncorrect             20047                       # Number of conditional branches incorrect
system.cpu.branchPred.BTBLookups              1384651                       # Number of BTB lookups
system.cpu.branchPred.BTBHits                 1377554                       # Number of BTB hits
system.cpu.branchPred.BTBHitPct             99.487452                       # BTB Hit Percentage
system.cpu.branchPred.RASUsed                  573906                       # Number of times the RAS was used to get a target.
system.cpu.branchPred.RASIncorrect                990                       # Number of incorrect RAS predictions.
system.cpu.branchPred.indirectLookups          538674                       # Number of indirect predictor lookups.
system.cpu.branchPred.indirectHits             532243                       # Number of indirect target hits.
system.cpu.branchPred.indirectMisses             6431                       # Number of indirect misses.
system.cpu.branchPred.indirectMispredicted          332                       # Number of mispredicted indirect branches.
system.cpu.commit.commitSquashedInsts          684279                       # The number of squashed insts skipped by commit
system.cpu.commit.commitNonSpecStalls              36                       # The number of times commit has been forced to stall to communicate backwards
system.cpu.commit.branchMispredicts             16622                       # The number of times a branch was mispredicted
system.cpu.commit.numCommittedDist::samples     10200452                       # Number of insts commited each cycle
system.cpu.commit.numCommittedDist::mean     3.406070                       # Number of insts commited each cycle
system.cpu.commit.numCommittedDist::stdev     3.206115                       # Number of insts commited each cycle
system.cpu.commit.numCommittedDist::underflows            0      0.00%      0.00% # Number of insts commited each cycle
system.cpu.commit.numCommittedDist::0         2523668     24.74%     24.74% # Number of insts commited each cycle
system.cpu.commit.numCommittedDist::1         1313863     12.88%     37.62% # Number of insts commited each cycle
system.cpu.commit.numCommittedDist::2         1747083     17.13%     54.75% # Number of insts commited each cycle
system.cpu.commit.numCommittedDist::3          825929      8.10%     62.85% # Number of insts commited each cycle
system.cpu.commit.numCommittedDist::4          598150      5.86%     68.71% # Number of insts commited each cycle
system.cpu.commit.numCommittedDist::5           86398      0.85%     69.56% # Number of insts commited each cycle
system.cpu.commit.numCommittedDist::6           64722      0.63%     70.19% # Number of insts commited each cycle
system.cpu.commit.numCommittedDist::7           80399      0.79%     70.98% # Number of insts commited each cycle
system.cpu.commit.numCommittedDist::8         2960240     29.02%    100.00% # Number of insts commited each cycle
system.cpu.commit.numCommittedDist::overflows            0      0.00%    100.00% # Number of insts commited each cycle
system.cpu.commit.numCommittedDist::min_value            0                       # Number of insts commited each cycle
system.cpu.commit.numCommittedDist::max_value            8                       # Number of insts commited each cycle
system.cpu.commit.numCommittedDist::total     10200452                       # Number of insts commited each cycle
system.cpu.commit.instsCommitted             19364844                       # Number of instructions committed
system.cpu.commit.opsCommitted               34743451                       # Number of ops (including micro ops) committed
system.cpu.commit.memRefs                    12049546                       # Number of memory references committed
system.cpu.commit.loads                       7970878                       # Number of loads committed
system.cpu.commit.amos                              0                       # Number of atomic instructions committed
system.cpu.commit.membars                           0                       # Number of memory barriers committed
system.cpu.commit.branches                    3279651                       # Number of branches committed
system.cpu.commit.vector                            0                       # Number of committed Vector instructions.
system.cpu.commit.floating                    5165664                       # Number of committed floating point instructions.
system.cpu.commit.integer                    32565433                       # Number of committed integer instructions.
system.cpu.commit.functionCalls                563408                       # Number of function calls committed.
system.cpu.commit.committedInstType_0::No_OpClass        97177      0.28%      0.28% # Class of committed instruction
system.cpu.commit.committedInstType_0::IntAlu     19942199     57.40%     57.68% # Class of committed instruction
system.cpu.commit.committedInstType_0::IntMult       516166      1.49%     59.16% # Class of committed instruction
system.cpu.commit.committedInstType_0::IntDiv        54072      0.16%     59.32% # Class of committed instruction
system.cpu.commit.committedInstType_0::FloatAdd      1515774      4.36%     63.68% # Class of committed instruction
system.cpu.commit.committedInstType_0::FloatCmp            0      0.00%     63.68% # Class of committed instruction
system.cpu.commit.committedInstType_0::FloatCvt           64      0.00%     63.68% # Class of committed instruction
system.cpu.commit.committedInstType_0::FloatMult            0      0.00%     63.68% # Class of committed instruction
system.cpu.commit.committedInstType_0::FloatMultAcc            0      0.00%     63.68% # Class of committed instruction
system.cpu.commit.committedInstType_0::FloatDiv            0      0.00%     63.68% # Class of committed instruction
system.cpu.commit.committedInstType_0::FloatMisc            0      0.00%     63.68% # Class of committed instruction
system.cpu.commit.committedInstType_0::FloatSqrt            0      0.00%     63.68% # Class of committed instruction
system.cpu.commit.committedInstType_0::SimdAdd          372      0.00%     63.68% # Class of committed instruction
system.cpu.commit.committedInstType_0::SimdAddAcc            0      0.00%     63.68% # Class of committed instruction
system.cpu.commit.committedInstType_0::SimdAlu        20795      0.06%     63.74% # Class of committed instruction
system.cpu.commit.committedInstType_0::SimdCmp            0      0.00%     63.74% # Class of committed instruction
system.cpu.commit.committedInstType_0::SimdCvt        10808      0.03%     63.77% # Class of committed instruction
system.cpu.commit.committedInstType_0::SimdMisc        27759      0.08%     63.85% # Class of committed instruction
system.cpu.commit.committedInstType_0::SimdMult            0      0.00%     63.85% # Class of committed instruction
system.cpu.commit.committedInstType_0::SimdMultAcc            0      0.00%     63.85% # Class of committed instruction
system.cpu.commit.committedInstType_0::SimdShift          225      0.00%     63.85% # Class of committed instruction
system.cpu.commit.committedInstType_0::SimdShiftAcc            0      0.00%     63.85% # Class of committed instruction
system.cpu.commit.committedInstType_0::SimdDiv            0      0.00%     63.85% # Class of committed instruction
system.cpu.commit.committedInstType_0::SimdSqrt            0      0.00%     63.85% # Class of committed instruction
system.cpu.commit.committedInstType_0::SimdFloatAdd            0      0.00%     63.85% # Class of committed instruction
system.cpu.commit.committedInstType_0::SimdFloatAlu            0      0.00%     63.85% # Class of committed instruction
system.cpu.commit.committedInstType_0::SimdFloatCmp            0      0.00%     63.85% # Class of committed instruction
system.cpu.commit.committedInstType_0::SimdFloatCvt       508494      1.46%     65.32% # Class of committed instruction
system.cpu.commit.committedInstType_0::SimdFloatDiv            0      0.00%     65.32% # Class of committed instruction
system.cpu.commit.committedInstType_0::SimdFloatMisc            0      0.00%     65.32% # Class of committed instruction
system.cpu.commit.committedInstType_0::SimdFloatMult            0      0.00%     65.32% # Class of committed instruction
system.cpu.commit.committedInstType_0::SimdFloatMultAcc            0      0.00%     65.32% # Class of committed instruction
system.cpu.commit.committedInstType_0::SimdFloatSqrt            0      0.00%     65.32% # Class of committed instruction
system.cpu.commit.committedInstType_0::SimdReduceAdd            0      0.00%     65.32% # Class of committed instruction
system.cpu.commit.committedInstType_0::SimdReduceAlu            0      0.00%     65.32% # Class of committed instruction
system.cpu.commit.committedInstType_0::SimdReduceCmp            0      0.00%     65.32% # Class of committed instruction
system.cpu.commit.committedInstType_0::SimdFloatReduceAdd            0      0.00%     65.32% # Class of committed instruction
system.cpu.commit.committedInstType_0::SimdFloatReduceCmp            0      0.00%     65.32% # Class of committed instruction
system.cpu.commit.committedInstType_0::SimdAes            0      0.00%     65.32% # Class of committed instruction
system.cpu.commit.committedInstType_0::SimdAesMix            0      0.00%     65.32% # Class of committed instruction
system.cpu.commit.committedInstType_0::SimdSha1Hash            0      0.00%     65.32% # Class of committed instruction
system.cpu.commit.committedInstType_0::SimdSha1Hash2            0      0.00%     65.32% # Class of committed instruction
system.cpu.commit.committedInstType_0::SimdSha256Hash            0      0.00%     65.32% # Class of committed instruction
system.cpu.commit.committedInstType_0::SimdSha256Hash2            0      0.00%     65.32% # Class of committed instruction
system.cpu.commit.committedInstType_0::SimdShaSigma2            0      0.00%     65.32% # Class of committed instruction
system.cpu.commit.committedInstType_0::SimdShaSigma3            0      0.00%     65.32% # Class of committed instruction
system.cpu.commit.committedInstType_0::SimdPredAlu            0      0.00%     65.32% # Class of committed instruction
system.cpu.commit.committedInstType_0::MemRead      5932778     17.08%     82.39% # Class of committed instruction
system.cpu.commit.committedInstType_0::MemWrite      3043586      8.76%     91.15% # Class of committed instruction
system.cpu.commit.committedInstType_0::FloatMemRead      2038100      5.87%     97.02% # Class of committed instruction
system.cpu.commit.committedInstType_0::FloatMemWrite      1035082      2.98%    100.00% # Class of committed instruction
system.cpu.commit.committedInstType_0::IprAccess            0      0.00%    100.00% # Class of committed instruction
system.cpu.commit.committedInstType_0::InstPrefetch            0      0.00%    100.00% # Class of committed instruction
system.cpu.commit.committedInstType_0::total     34743451                       # Class of committed instruction
system.cpu.commit.commitEligibleSamples       2960240                       # number cycles where commit BW limit reached
system.cpu.dcache.demand_hits::.cpu.data      7797345                       # number of demand (read+write) hits
system.cpu.dcache.demand_hits::total          7797345                       # number of demand (read+write) hits
system.cpu.dcache.overall_hits::.cpu.data      7797345                       # number of overall hits
system.cpu.dcache.overall_hits::total         7797345                       # number of overall hits
system.cpu.dcache.demand_misses::.cpu.data        29841                       # number of demand (read+write) misses
system.cpu.dcache.demand_misses::total          29841                       # number of demand (read+write) misses
system.cpu.dcache.overall_misses::.cpu.data        29841                       # number of overall misses
system.cpu.dcache.overall_misses::total         29841                       # number of overall misses
system.cpu.dcache.demand_miss_latency::.cpu.data   1208735500                       # number of demand (read+write) miss cycles
system.cpu.dcache.demand_miss_latency::total   1208735500                       # number of demand (read+write) miss cycles
system.cpu.dcache.overall_miss_latency::.cpu.data   1208735500                       # number of overall miss cycles
system.cpu.dcache.overall_miss_latency::total   1208735500                       # number of overall miss cycles
system.cpu.dcache.demand_accesses::.cpu.data      7827186                       # number of demand (read+write) accesses
system.cpu.dcache.demand_accesses::total      7827186                       # number of demand (read+write) accesses
system.cpu.dcache.overall_accesses::.cpu.data      7827186                       # number of overall (read+write) accesses
system.cpu.dcache.overall_accesses::total      7827186                       # number of overall (read+write) accesses
system.cpu.dcache.demand_miss_rate::.cpu.data     0.003812                       # miss rate for demand accesses
system.cpu.dcache.demand_miss_rate::total     0.003812                       # miss rate for demand accesses
system.cpu.dcache.overall_miss_rate::.cpu.data     0.003812                       # miss rate for overall accesses
system.cpu.dcache.overall_miss_rate::total     0.003812                       # miss rate for overall accesses
system.cpu.dcache.demand_avg_miss_latency::.cpu.data 40505.864415                       # average overall miss latency
system.cpu.dcache.demand_avg_miss_latency::total 40505.864415                       # average overall miss latency
system.cpu.dcache.overall_avg_miss_latency::.cpu.data 40505.864415                       # average overall miss latency
system.cpu.dcache.overall_avg_miss_latency::total 40505.864415                       # average overall miss latency
system.cpu.dcache.blocked_cycles::no_mshrs        17148                       # number of cycles access was blocked
system.cpu.dcache.blocked_cycles::no_targets           11                       # number of cycles access was blocked
system.cpu.dcache.blocked::no_mshrs               407                       # number of cycles access was blocked
system.cpu.dcache.blocked::no_targets               2                       # number of cycles access was blocked
system.cpu.dcache.avg_blocked_cycles::no_mshrs    42.132678                       # average number of cycles each access was blocked
system.cpu.dcache.avg_blocked_cycles::no_targets     5.500000                       # average number of cycles each access was blocked
system.cpu.dcache.writebacks::.writebacks         6383                       # number of writebacks
system.cpu.dcache.writebacks::total              6383                       # number of writebacks
system.cpu.dcache.demand_mshr_hits::.cpu.data        20757                       # number of demand (read+write) MSHR hits
system.cpu.dcache.demand_mshr_hits::total        20757                       # number of demand (read+write) MSHR hits
system.cpu.dcache.overall_mshr_hits::.cpu.data        20757                       # number of overall MSHR hits
system.cpu.dcache.overall_mshr_hits::total        20757                       # number of overall MSHR hits
system.cpu.dcache.demand_mshr_misses::.cpu.data         9084                       # number of demand (read+write) MSHR misses
system.cpu.dcache.demand_mshr_misses::total         9084                       # number of demand (read+write) MSHR misses
system.cpu.dcache.overall_mshr_misses::.cpu.data         9084                       # number of overall MSHR misses
system.cpu.dcache.overall_mshr_misses::total         9084                       # number of overall MSHR misses
system.cpu.dcache.demand_mshr_miss_latency::.cpu.data    454484000                       # number of demand (read+write) MSHR miss cycles
system.cpu.dcache.demand_mshr_miss_latency::total    454484000                       # number of demand (read+write) MSHR miss cycles
system.cpu.dcache.overall_mshr_miss_latency::.cpu.data    454484000                       # number of overall MSHR miss cycles
system.cpu.dcache.overall_mshr_miss_latency::total    454484000                       # number of overall MSHR miss cycles
system.cpu.dcache.demand_mshr_miss_rate::.cpu.data     0.001161                       # mshr miss rate for demand accesses
system.cpu.dcache.demand_mshr_miss_rate::total     0.001161                       # mshr miss rate for demand accesses
system.cpu.dcache.overall_mshr_miss_rate::.cpu.data     0.001161                       # mshr miss rate for overall accesses
system.cpu.dcache.overall_mshr_miss_rate::total     0.001161                       # mshr miss rate for overall accesses
system.cpu.dcache.demand_avg_mshr_miss_latency::.cpu.data 50031.263760                       # average overall mshr miss latency
system.cpu.dcache.demand_avg_mshr_miss_latency::total 50031.263760                       # average overall mshr miss latency
system.cpu.dcache.overall_avg_mshr_miss_latency::.cpu.data 50031.263760                       # average overall mshr miss latency
system.cpu.dcache.overall_avg_mshr_miss_latency::total 50031.263760                       # average overall mshr miss latency
system.cpu.dcache.replacements                   8571                       # number of replacements
system.cpu.dcache.ReadReq_hits::.cpu.data      3722380                       # number of ReadReq hits
system.cpu.dcache.ReadReq_hits::total         3722380                       # number of ReadReq hits
system.cpu.dcache.ReadReq_misses::.cpu.data        26138                       # number of ReadReq misses
system.cpu.dcache.ReadReq_misses::total         26138                       # number of ReadReq misses
system.cpu.dcache.ReadReq_miss_latency::.cpu.data    944161000                       # number of ReadReq miss cycles
system.cpu.dcache.ReadReq_miss_latency::total    944161000                       # number of ReadReq miss cycles
system.cpu.dcache.ReadReq_accesses::.cpu.data      3748518                       # number of ReadReq accesses(hits+misses)
system.cpu.dcache.ReadReq_accesses::total      3748518                       # number of ReadReq accesses(hits+misses)
system.cpu.dcache.ReadReq_miss_rate::.cpu.data     0.006973                       # miss rate for ReadReq accesses
system.cpu.dcache.ReadReq_miss_rate::total     0.006973                       # miss rate for ReadReq accesses
system.cpu.dcache.ReadReq_avg_miss_latency::.cpu.data 36122.159308                       # average ReadReq miss latency
system.cpu.dcache.ReadReq_avg_miss_latency::total 36122.159308                       # average ReadReq miss latency
system.cpu.dcache.ReadReq_mshr_hits::.cpu.data        20709                       # number of ReadReq MSHR hits
system.cpu.dcache.ReadReq_mshr_hits::total        20709                       # number of ReadReq MSHR hits
system.cpu.dcache.ReadReq_mshr_misses::.cpu.data         5429                       # number of ReadReq MSHR misses
system.cpu.dcache.ReadReq_mshr_misses::total         5429                       # number of ReadReq MSHR misses
system.cpu.dcache.ReadReq_mshr_miss_latency::.cpu.data    197023000                       # number of ReadReq MSHR miss cycles
system.cpu.dcache.ReadReq_mshr_miss_latency::total    197023000                       # number of ReadReq MSHR miss cycles
system.cpu.dcache.ReadReq_mshr_miss_rate::.cpu.data     0.001448                       # mshr miss rate for ReadReq accesses
system.cpu.dcache.ReadReq_mshr_miss_rate::total     0.001448                       # mshr miss rate for ReadReq accesses
system.cpu.dcache.ReadReq_avg_mshr_miss_latency::.cpu.data 36290.845460                       # average ReadReq mshr miss latency
system.cpu.dcache.ReadReq_avg_mshr_miss_latency::total 36290.845460                       # average ReadReq mshr miss latency
system.cpu.dcache.WriteReq_hits::.cpu.data      4074965                       # number of WriteReq hits
system.cpu.dcache.WriteReq_hits::total        4074965                       # number of WriteReq hits
system.cpu.dcache.WriteReq_misses::.cpu.data         3703                       # number of WriteReq misses
system.cpu.dcache.WriteReq_misses::total         3703                       # number of WriteReq misses
system.cpu.dcache.WriteReq_miss_latency::.cpu.data    264574500                       # number of WriteReq miss cycles
system.cpu.dcache.WriteReq_miss_latency::total    264574500                       # number of WriteReq miss cycles
system.cpu.dcache.WriteReq_accesses::.cpu.data      4078668                       # number of WriteReq accesses(hits+misses)
system.cpu.dcache.WriteReq_accesses::total      4078668                       # number of WriteReq accesses(hits+misses)
system.cpu.dcache.WriteReq_miss_rate::.cpu.data     0.000908                       # miss rate for WriteReq accesses
system.cpu.dcache.WriteReq_miss_rate::total     0.000908                       # miss rate for WriteReq accesses
system.cpu.dcache.WriteReq_avg_miss_latency::.cpu.data 71448.690251                       # average WriteReq miss latency
system.cpu.dcache.WriteReq_avg_miss_latency::total 71448.690251                       # average WriteReq miss latency
system.cpu.dcache.WriteReq_mshr_hits::.cpu.data           48                       # number of WriteReq MSHR hits
system.cpu.dcache.WriteReq_mshr_hits::total           48                       # number of WriteReq MSHR hits
system.cpu.dcache.WriteReq_mshr_misses::.cpu.data         3655                       # number of WriteReq MSHR misses
system.cpu.dcache.WriteReq_mshr_misses::total         3655                       # number of WriteReq MSHR misses
system.cpu.dcache.WriteReq_mshr_miss_latency::.cpu.data    257461000                       # number of WriteReq MSHR miss cycles
system.cpu.dcache.WriteReq_mshr_miss_latency::total    257461000                       # number of WriteReq MSHR miss cycles
system.cpu.dcache.WriteReq_mshr_miss_rate::.cpu.data     0.000896                       # mshr miss rate for WriteReq accesses
system.cpu.dcache.WriteReq_mshr_miss_rate::total     0.000896                       # mshr miss rate for WriteReq accesses
system.cpu.dcache.WriteReq_avg_mshr_miss_latency::.cpu.data 70440.766074                       # average WriteReq mshr miss latency
system.cpu.dcache.WriteReq_avg_mshr_miss_latency::total 70440.766074                       # average WriteReq mshr miss latency
system.cpu.dcache.power_state.pwrStateResidencyTicks::UNDEFINED   5195989500                       # Cumulative time (in ticks) in various power states
system.cpu.dcache.tags.tagsinuse           509.207308                       # Cycle average of tags in use
system.cpu.dcache.tags.total_refs             7806429                       # Total number of references to valid blocks.
system.cpu.dcache.tags.sampled_refs              9083                       # Sample count of references to valid blocks.
system.cpu.dcache.tags.avg_refs            859.454916                       # Average number of references to valid blocks.
system.cpu.dcache.tags.warmup_cycle            168000                       # Cycle when the warmup percentage was hit.
system.cpu.dcache.tags.occ_blocks::.cpu.data   509.207308                       # Average occupied blocks per requestor
system.cpu.dcache.tags.occ_percent::.cpu.data     0.994546                       # Average percentage of cache occupancy
system.cpu.dcache.tags.occ_percent::total     0.994546                       # Average percentage of cache occupancy
system.cpu.dcache.tags.occ_task_id_blocks::1024          512                       # Occupied blocks per task id
system.cpu.dcache.tags.age_task_id_blocks_1024::0           58                       # Occupied blocks per task id
system.cpu.dcache.tags.age_task_id_blocks_1024::1           13                       # Occupied blocks per task id
system.cpu.dcache.tags.age_task_id_blocks_1024::2          441                       # Occupied blocks per task id
system.cpu.dcache.tags.occ_task_id_percent::1024            1                       # Percentage of cache occupancy per task id
system.cpu.dcache.tags.tag_accesses          31317827                       # Number of tag accesses
system.cpu.dcache.tags.data_accesses         31317827                       # Number of data accesses
system.cpu.dcache.tags.power_state.pwrStateResidencyTicks::UNDEFINED   5195989500                       # Cumulative time (in ticks) in various power states
system.cpu.decode.idleCycles                  1258253                       # Number of cycles decode is idle
system.cpu.decode.blockedCycles               4113415                       # Number of cycles decode is blocked
system.cpu.decode.runCycles                   3916017                       # Number of cycles decode is running
system.cpu.decode.unblockCycles                992270                       # Number of cycles decode is unblocking
system.cpu.decode.squashCycles                  18188                       # Number of cycles decode is squashing
system.cpu.decode.branchResolved              1373616                       # Number of times decode resolved a  branch
system.cpu.decode.branchMispred                  4652                       # Number of times decode detected a branch misprediction
system.cpu.decode.decodedInsts               35681701                       # Number of instructions handled by decode
system.cpu.decode.squashedInsts                 33088                       # Number of squashed instructions handled by decode
system.cpu.dtb.rdAccesses                     8064942                       # TLB accesses on read requests
system.cpu.dtb.wrAccesses                     4096305                       # TLB accesses on write requests
system.cpu.dtb.rdMisses                           665                       # TLB misses on read requests
system.cpu.dtb.wrMisses                           393                       # TLB misses on write requests
system.cpu.dtb.walker.power_state.pwrStateResidencyTicks::UNDEFINED   5195989500                       # Cumulative time (in ticks) in various power states
system.cpu.dtb_walker_cache.blocked_cycles::no_mshrs            0                       # number of cycles access was blocked
system.cpu.dtb_walker_cache.blocked_cycles::no_targets            0                       # number of cycles access was blocked
system.cpu.dtb_walker_cache.blocked::no_mshrs            0                       # number of cycles access was blocked
system.cpu.dtb_walker_cache.blocked::no_targets            0                       # number of cycles access was blocked
system.cpu.dtb_walker_cache.avg_blocked_cycles::no_mshrs          nan                       # average number of cycles each access was blocked
system.cpu.dtb_walker_cache.avg_blocked_cycles::no_targets          nan                       # average number of cycles each access was blocked
system.cpu.dtb_walker_cache.replacements            0                       # number of replacements
system.cpu.dtb_walker_cache.power_state.pwrStateResidencyTicks::UNDEFINED   5195989500                       # Cumulative time (in ticks) in various power states
system.cpu.dtb_walker_cache.tags.tagsinuse            0                       # Cycle average of tags in use
system.cpu.dtb_walker_cache.tags.total_refs            0                       # Total number of references to valid blocks.
system.cpu.dtb_walker_cache.tags.sampled_refs            0                       # Sample count of references to valid blocks.
system.cpu.dtb_walker_cache.tags.avg_refs          nan                       # Average number of references to valid blocks.
system.cpu.dtb_walker_cache.tags.warmup_cycle            0                       # Cycle when the warmup percentage was hit.
system.cpu.dtb_walker_cache.tags.tag_accesses            0                       # Number of tag accesses
system.cpu.dtb_walker_cache.tags.data_accesses            0                       # Number of data accesses
system.cpu.dtb_walker_cache.tags.power_state.pwrStateResidencyTicks::UNDEFINED   5195989500                       # Cumulative time (in ticks) in various power states
system.cpu.fetch.icacheStallCycles            3156265                       # Number of cycles fetch is stalled on an Icache miss
system.cpu.fetch.insts                       19994832                       # Number of instructions fetch has processed
system.cpu.fetch.branches                     3405625                       # Number of branches that fetch encountered
system.cpu.fetch.predictedBranches            2483703                       # Number of branches that fetch has predicted taken
system.cpu.fetch.cycles                       7109793                       # Number of cycles fetch has run and was not squashing or blocked
system.cpu.fetch.squashCycles                   45648                       # Number of cycles fetch has spent squashing
system.cpu.fetch.miscStallCycles                 1383                       # Number of cycles fetch has spent waiting on interrupts,or bad addresses, or out of MSHRs
system.cpu.fetch.pendingTrapStallCycles          7866                       # Number of stall cycles due to pending traps
system.cpu.fetch.pendingQuiesceStallCycles           11                       # Number of stall cycles due to pending quiesce instructions
system.cpu.fetch.icacheWaitRetryStallCycles            1                       # Number of stall cycles due to full MSHR
system.cpu.fetch.cacheLines                   3101880                       # Number of cache lines fetched
system.cpu.fetch.icacheSquashes                  6976                       # Number of outstanding Icache misses that were squashed
system.cpu.fetch.nisnDist::samples           10298143                       # Number of instructions fetched each cycle (Total)
system.cpu.fetch.nisnDist::mean              3.485687                       # Number of instructions fetched each cycle (Total)
system.cpu.fetch.nisnDist::stdev             3.373883                       # Number of instructions fetched each cycle (Total)
system.cpu.fetch.nisnDist::underflows               0      0.00%      0.00% # Number of instructions fetched each cycle (Total)
system.cpu.fetch.nisnDist::0                  3923586     38.10%     38.10% # Number of instructions fetched each cycle (Total)
system.cpu.fetch.nisnDist::1                   637979      6.20%     44.30% # Number of instructions fetched each cycle (Total)
system.cpu.fetch.nisnDist::2                   546233      5.30%     49.60% # Number of instructions fetched each cycle (Total)
system.cpu.fetch.nisnDist::3                   589013      5.72%     55.32% # Number of instructions fetched each cycle (Total)
system.cpu.fetch.nisnDist::4                   101663      0.99%     56.31% # Number of instructions fetched each cycle (Total)
system.cpu.fetch.nisnDist::5                   581961      5.65%     61.96% # Number of instructions fetched each cycle (Total)
system.cpu.fetch.nisnDist::6                   603371      5.86%     67.82% # Number of instructions fetched each cycle (Total)
system.cpu.fetch.nisnDist::7                  1052756     10.22%     78.04% # Number of instructions fetched each cycle (Total)
system.cpu.fetch.nisnDist::8                  2261581     21.96%    100.00% # Number of instructions fetched each cycle (Total)
system.cpu.fetch.nisnDist::overflows                0      0.00%    100.00% # Number of instructions fetched each cycle (Total)
system.cpu.fetch.nisnDist::min_value                0                       # Number of instructions fetched each cycle (Total)
system.cpu.fetch.nisnDist::max_value                8                       # Number of instructions fetched each cycle (Total)
system.cpu.fetch.nisnDist::total             10298143                       # Number of instructions fetched each cycle (Total)
system.cpu.fetch.branchRate                  0.327717                       # Number of branch fetches per cycle
system.cpu.fetch.rate                        1.924064                       # Number of inst fetches per cycle
system.cpu.icache.demand_hits::.cpu.inst      3100046                       # number of demand (read+write) hits
system.cpu.icache.demand_hits::total          3100046                       # number of demand (read+write) hits
system.cpu.icache.overall_hits::.cpu.inst      3100046                       # number of overall hits
system.cpu.icache.overall_hits::total         3100046                       # number of overall hits
system.cpu.icache.demand_misses::.cpu.inst         1833                       # number of demand (read+write) misses
system.cpu.icache.demand_misses::total           1833                       # number of demand (read+write) misses
system.cpu.icache.overall_misses::.cpu.inst         1833                       # number of overall misses
system.cpu.icache.overall_misses::total          1833                       # number of overall misses
system.cpu.icache.demand_miss_latency::.cpu.inst    125833000                       # number of demand (read+write) miss cycles
system.cpu.icache.demand_miss_latency::total    125833000                       # number of demand (read+write) miss cycles
system.cpu.icache.overall_miss_latency::.cpu.inst    125833000                       # number of overall miss cycles
system.cpu.icache.overall_miss_latency::total    125833000                       # number of overall miss cycles
system.cpu.icache.demand_accesses::.cpu.inst      3101879                       # number of demand (read+write) accesses
system.cpu.icache.demand_accesses::total      3101879                       # number of demand (read+write) accesses
system.cpu.icache.overall_accesses::.cpu.inst      3101879                       # number of overall (read+write) accesses
system.cpu.icache.overall_accesses::total      3101879                       # number of overall (read+write) accesses
system.cpu.icache.demand_miss_rate::.cpu.inst     0.000591                       # miss rate for demand accesses
system.cpu.icache.demand_miss_rate::total     0.000591                       # miss rate for demand accesses
system.cpu.icache.overall_miss_rate::.cpu.inst     0.000591                       # miss rate for overall accesses
system.cpu.icache.overall_miss_rate::total     0.000591                       # miss rate for overall accesses
system.cpu.icache.demand_avg_miss_latency::.cpu.inst 68648.663393                       # average overall miss latency
system.cpu.icache.demand_avg_miss_latency::total 68648.663393                       # average overall miss latency
system.cpu.icache.overall_avg_miss_latency::.cpu.inst 68648.663393                       # average overall miss latency
system.cpu.icache.overall_avg_miss_latency::total 68648.663393                       # average overall miss latency
system.cpu.icache.blocked_cycles::no_mshrs          355                       # number of cycles access was blocked
system.cpu.icache.blocked_cycles::no_targets            0                       # number of cycles access was blocked
system.cpu.icache.blocked::no_mshrs                 4                       # number of cycles access was blocked
system.cpu.icache.blocked::no_targets               0                       # number of cycles access was blocked
system.cpu.icache.avg_blocked_cycles::no_mshrs    88.750000                       # average number of cycles each access was blocked
system.cpu.icache.avg_blocked_cycles::no_targets          nan                       # average number of cycles each access was blocked
system.cpu.icache.writebacks::.writebacks          407                       # number of writebacks
system.cpu.icache.writebacks::total               407                       # number of writebacks
system.cpu.icache.demand_mshr_hits::.cpu.inst          471                       # number of demand (read+write) MSHR hits
system.cpu.icache.demand_mshr_hits::total          471                       # number of demand (read+write) MSHR hits
system.cpu.icache.overall_mshr_hits::.cpu.inst          471                       # number of overall MSHR hits
system.cpu.icache.overall_mshr_hits::total          471                       # number of overall MSHR hits
system.cpu.icache.demand_mshr_misses::.cpu.inst         1362                       # number of demand (read+write) MSHR misses
system.cpu.icache.demand_mshr_misses::total         1362                       # number of demand (read+write) MSHR misses
system.cpu.icache.overall_mshr_misses::.cpu.inst         1362                       # number of overall MSHR misses
system.cpu.icache.overall_mshr_misses::total         1362                       # number of overall MSHR misses
system.cpu.icache.demand_mshr_miss_latency::.cpu.inst     98288500                       # number of demand (read+write) MSHR miss cycles
system.cpu.icache.demand_mshr_miss_latency::total     98288500                       # number of demand (read+write) MSHR miss cycles
system.cpu.icache.overall_mshr_miss_latency::.cpu.inst     98288500                       # number of overall MSHR miss cycles
system.cpu.icache.overall_mshr_miss_latency::total     98288500                       # number of overall MSHR miss cycles
system.cpu.icache.demand_mshr_miss_rate::.cpu.inst     0.000439                       # mshr miss rate for demand accesses
system.cpu.icache.demand_mshr_miss_rate::total     0.000439                       # mshr miss rate for demand accesses
system.cpu.icache.overall_mshr_miss_rate::.cpu.inst     0.000439                       # mshr miss rate for overall accesses
system.cpu.icache.overall_mshr_miss_rate::total     0.000439                       # mshr miss rate for overall accesses
system.cpu.icache.demand_avg_mshr_miss_latency::.cpu.inst 72164.831131                       # average overall mshr miss latency
system.cpu.icache.demand_avg_mshr_miss_latency::total 72164.831131                       # average overall mshr miss latency
system.cpu.icache.overall_avg_mshr_miss_latency::.cpu.inst 72164.831131                       # average overall mshr miss latency
system.cpu.icache.overall_avg_mshr_miss_latency::total 72164.831131                       # average overall mshr miss latency
system.cpu.icache.replacements                    407                       # number of replacements
system.cpu.icache.ReadReq_hits::.cpu.inst      3100046                       # number of ReadReq hits
system.cpu.icache.ReadReq_hits::total         3100046                       # number of ReadReq hits
system.cpu.icache.ReadReq_misses::.cpu.inst         1833                       # number of ReadReq misses
system.cpu.icache.ReadReq_misses::total          1833                       # number of ReadReq misses
system.cpu.icache.ReadReq_miss_latency::.cpu.inst    125833000                       # number of ReadReq miss cycles
system.cpu.icache.ReadReq_miss_latency::total    125833000                       # number of ReadReq miss cycles
system.cpu.icache.ReadReq_accesses::.cpu.inst      3101879                       # number of ReadReq accesses(hits+misses)
system.cpu.icache.ReadReq_accesses::total      3101879                       # number of ReadReq accesses(hits+misses)
system.cpu.icache.ReadReq_miss_rate::.cpu.inst     0.000591                       # miss rate for ReadReq accesses
system.cpu.icache.ReadReq_miss_rate::total     0.000591                       # miss rate for ReadReq accesses
system.cpu.icache.ReadReq_avg_miss_latency::.cpu.inst 68648.663393                       # average ReadReq miss latency
system.cpu.icache.ReadReq_avg_miss_latency::total 68648.663393                       # average ReadReq miss latency
system.cpu.icache.ReadReq_mshr_hits::.cpu.inst          471                       # number of ReadReq MSHR hits
system.cpu.icache.ReadReq_mshr_hits::total          471                       # number of ReadReq MSHR hits
system.cpu.icache.ReadReq_mshr_misses::.cpu.inst         1362                       # number of ReadReq MSHR misses
system.cpu.icache.ReadReq_mshr_misses::total         1362                       # number of ReadReq MSHR misses
system.cpu.icache.ReadReq_mshr_miss_latency::.cpu.inst     98288500                       # number of ReadReq MSHR miss cycles
system.cpu.icache.ReadReq_mshr_miss_latency::total     98288500                       # number of ReadReq MSHR miss cycles
system.cpu.icache.ReadReq_mshr_miss_rate::.cpu.inst     0.000439                       # mshr miss rate for ReadReq accesses
system.cpu.icache.ReadReq_mshr_miss_rate::total     0.000439                       # mshr miss rate for ReadReq accesses
system.cpu.icache.ReadReq_avg_mshr_miss_latency::.cpu.inst 72164.831131                       # average ReadReq mshr miss latency
system.cpu.icache.ReadReq_avg_mshr_miss_latency::total 72164.831131                       # average ReadReq mshr miss latency
system.cpu.icache.power_state.pwrStateResidencyTicks::UNDEFINED   5195989500                       # Cumulative time (in ticks) in various power states
system.cpu.icache.tags.tagsinuse           839.925381                       # Cycle average of tags in use
system.cpu.icache.tags.total_refs             3101407                       # Total number of references to valid blocks.
system.cpu.icache.tags.sampled_refs              1361                       # Sample count of references to valid blocks.
system.cpu.icache.tags.avg_refs           2278.770757                       # Average number of references to valid blocks.
system.cpu.icache.tags.warmup_cycle             82000                       # Cycle when the warmup percentage was hit.
system.cpu.icache.tags.occ_blocks::.cpu.inst   839.925381                       # Average occupied blocks per requestor
system.cpu.icache.tags.occ_percent::.cpu.inst     0.820240                       # Average percentage of cache occupancy
system.cpu.icache.tags.occ_percent::total     0.820240                       # Average percentage of cache occupancy
system.cpu.icache.tags.occ_task_id_blocks::1024          953                       # Occupied blocks per task id
system.cpu.icache.tags.age_task_id_blocks_1024::0           86                       # Occupied blocks per task id
system.cpu.icache.tags.age_task_id_blocks_1024::2          336                       # Occupied blocks per task id
system.cpu.icache.tags.age_task_id_blocks_1024::3          531                       # Occupied blocks per task id
system.cpu.icache.tags.occ_task_id_percent::1024     0.930664                       # Percentage of cache occupancy per task id
system.cpu.icache.tags.tag_accesses          12408877                       # Number of tag accesses
system.cpu.icache.tags.data_accesses         12408877                       # Number of data accesses
system.cpu.icache.tags.power_state.pwrStateResidencyTicks::UNDEFINED   5195989500                       # Cumulative time (in ticks) in various power states
system.cpu.interrupts.clk_domain.clock           8000                       # Clock period in ticks
system.cpu.itb.rdAccesses                           0                       # TLB accesses on read requests
system.cpu.itb.wrAccesses                     3103150                       # TLB accesses on write requests
system.cpu.itb.rdMisses                             0                       # TLB misses on read requests
system.cpu.itb.wrMisses                          1408                       # TLB misses on write requests
system.cpu.itb.walker.power_state.pwrStateResidencyTicks::UNDEFINED   5195989500                       # Cumulative time (in ticks) in various power states
system.cpu.itb_walker_cache.blocked_cycles::no_mshrs            0                       # number of cycles access was blocked
system.cpu.itb_walker_cache.blocked_cycles::no_targets            0                       # number of cycles access was blocked
system.cpu.itb_walker_cache.blocked::no_mshrs            0                       # number of cycles access was blocked
system.cpu.itb_walker_cache.blocked::no_targets            0                       # number of cycles access was blocked
system.cpu.itb_walker_cache.avg_blocked_cycles::no_mshrs          nan                       # average number of cycles each access was blocked
system.cpu.itb_walker_cache.avg_blocked_cycles::no_targets          nan                       # average number of cycles each access was blocked
system.cpu.itb_walker_cache.replacements            0                       # number of replacements
system.cpu.itb_walker_cache.power_state.pwrStateResidencyTicks::UNDEFINED   5195989500                       # Cumulative time (in ticks) in various power states
system.cpu.itb_walker_cache.tags.tagsinuse            0                       # Cycle average of tags in use
system.cpu.itb_walker_cache.tags.total_refs            0                       # Total number of references to valid blocks.
system.cpu.itb_walker_cache.tags.sampled_refs            0                       # Sample count of references to valid blocks.
system.cpu.itb_walker_cache.tags.avg_refs          nan                       # Average number of references to valid blocks.
system.cpu.itb_walker_cache.tags.warmup_cycle            0                       # Cycle when the warmup percentage was hit.
system.cpu.itb_walker_cache.tags.tag_accesses            0                       # Number of tag accesses
system.cpu.itb_walker_cache.tags.data_accesses            0                       # Number of data accesses
system.cpu.itb_walker_cache.tags.power_state.pwrStateResidencyTicks::UNDEFINED   5195989500                       # Cumulative time (in ticks) in various power states
system.cpu.lsq0.forwLoads                     4294976                       # Number of loads that had data forwarded from stores
system.cpu.lsq0.squashedLoads                  119081                       # Number of loads squashed
system.cpu.lsq0.ignoredResponses                  224                       # Number of memory responses ignored because the instruction is squashed
system.cpu.lsq0.memOrderViolation                 520                       # Number of memory ordering violations
system.cpu.lsq0.squashedStores                  43300                       # Number of stores squashed
system.cpu.lsq0.rescheduledLoads                11452                       # Number of loads that were rescheduled
system.cpu.lsq0.blockedByCache                    298                       # Number of times an access to memory failed due to the cache being blocked
system.cpu.power_state.pwrStateResidencyTicks::ON   5195989500                       # Cumulative time (in ticks) in various power states
system.cpu.rename.squashCycles                  18188                       # Number of cycles rename is squashing
system.cpu.rename.idleCycles                  1756296                       # Number of cycles rename is idle
system.cpu.rename.blockCycles                  407975                       # Number of cycles rename is blocking
system.cpu.rename.serializeStallCycles           4214                       # count of cycles rename stalledfor serializing inst
system.cpu.rename.runCycles                   4406383                       # Number of cycles rename is running
system.cpu.rename.unblockCycles               3705087                       # Number of cycles rename is unblocking
system.cpu.rename.renamedInsts               35588721                       # Number of instructions processed by rename
system.cpu.rename.ROBFullEvents                  5967                       # Number of times rename has blocked due to ROB full
system.cpu.rename.IQFullEvents                  60704                       # Number of times rename has blocked due to IQ full
system.cpu.rename.SQFullEvents                3625993                       # Number of times rename has blocked due to SQ full
system.cpu.rename.renamedOperands            34124444                       # Number of destination operands rename has renamed
system.cpu.rename.lookups                    87680848                       # Number of register rename lookups that rename has made
system.cpu.rename.intLookups                 56327318                       # Number of integer rename lookups
system.cpu.rename.fpLookups                   2208677                       # Number of floating rename lookups
system.cpu.rename.committedMaps              33147681                       # Number of HB maps that are committed
system.cpu.rename.undoneMaps                   976757                       # Number of HB maps that are undone due to squashing
system.cpu.rename.serializing                      61                       # count of serializing insts renamed
system.cpu.rename.tempSerializing                  49                       # count of temporary serializing insts renamed
system.cpu.rename.skidInsts                   5355291                       # count of insts added to the skid buffer
system.cpu.rob.reads                         42652459                       # The number of ROB reads
system.cpu.rob.writes                        70953344                       # The number of ROB writes
system.cpu.thread_0.numInsts                 19364844                       # Number of Instructions committed
system.cpu.thread_0.numOps                   34743451                       # Number of Ops committed
system.cpu.thread_0.numMemRefs                      0                       # Number of Memory References
system.cpu_clk_domain.clock                       500                       # Clock period in ticks
system.cpu_voltage_domain.voltage                   1                       # Voltage in Volts
system.l2.demand_hits::.cpu.inst                   16                       # number of demand (read+write) hits
system.l2.demand_hits::.cpu.data                 3360                       # number of demand (read+write) hits
system.l2.demand_hits::total                     3376                       # number of demand (read+write) hits
system.l2.overall_hits::.cpu.inst                  16                       # number of overall hits
system.l2.overall_hits::.cpu.data                3360                       # number of overall hits
system.l2.overall_hits::total                    3376                       # number of overall hits
system.l2.demand_misses::.cpu.inst               1341                       # number of demand (read+write) misses
system.l2.demand_misses::.cpu.data               5723                       # number of demand (read+write) misses
system.l2.demand_misses::total                   7064                       # number of demand (read+write) misses
system.l2.overall_misses::.cpu.inst              1341                       # number of overall misses
system.l2.overall_misses::.cpu.data              5723                       # number of overall misses
system.l2.overall_misses::total                  7064                       # number of overall misses
system.l2.demand_miss_latency::.cpu.inst     96049000                       # number of demand (read+write) miss cycles
system.l2.demand_miss_latency::.cpu.data    404965500                       # number of demand (read+write) miss cycles
system.l2.demand_miss_latency::total        501014500                       # number of demand (read+write) miss cycles
system.l2.overall_miss_latency::.cpu.inst     96049000                       # number of overall miss cycles
system.l2.overall_miss_latency::.cpu.data    404965500                       # number of overall miss cycles
system.l2.overall_miss_latency::total       501014500                       # number of overall miss cycles
system.l2.demand_accesses::.cpu.inst             1357                       # number of demand (read+write) accesses
system.l2.demand_accesses::.cpu.data             9083                       # number of demand (read+write) accesses
system.l2.demand_accesses::total                10440                       # number of demand (read+write) accesses
system.l2.overall_accesses::.cpu.inst            1357                       # number of overall (read+write) accesses
system.l2.overall_accesses::.cpu.data            9083                       # number of overall (read+write) accesses
system.l2.overall_accesses::total               10440                       # number of overall (read+write) accesses
system.l2.demand_miss_rate::.cpu.inst        0.988209                       # miss rate for demand accesses
system.l2.demand_miss_rate::.cpu.data        0.630078                       # miss rate for demand accesses
system.l2.demand_miss_rate::total            0.676628                       # miss rate for demand accesses
system.l2.overall_miss_rate::.cpu.inst       0.988209                       # miss rate for overall accesses
system.l2.overall_miss_rate::.cpu.data       0.630078                       # miss rate for overall accesses
system.l2.overall_miss_rate::total           0.676628                       # miss rate for overall accesses
system.l2.demand_avg_miss_latency::.cpu.inst 71624.906786                       # average overall miss latency
system.l2.demand_avg_miss_latency::.cpu.data 70761.051896                       # average overall miss latency
system.l2.demand_avg_miss_latency::total 70925.042469                       # average overall miss latency
system.l2.overall_avg_miss_latency::.cpu.inst 71624.906786                       # average overall miss latency
system.l2.overall_avg_miss_latency::.cpu.data 70761.051896                       # average overall miss latency
system.l2.overall_avg_miss_latency::total 70925.042469                       # average overall miss latency
system.l2.blocked_cycles::no_mshrs                  0                       # number of cycles access was blocked
[...]
system.mem_ctrls.dram.readBursts                 7059                       # Number of DRAM read bursts
system.mem_ctrls.dram.writeBursts                 171                       # Number of DRAM write bursts
system.mem_ctrls.dram.perBankRdBursts::0          325                       # Per bank write bursts
system.mem_ctrls.dram.perBankRdBursts::1          344                       # Per bank write bursts
system.mem_ctrls.dram.perBankRdBursts::2          651                       # Per bank write bursts
system.mem_ctrls.dram.perBankRdBursts::3          558                       # Per bank write bursts
system.mem_ctrls.dram.perBankRdBursts::4          580                       # Per bank write bursts
system.mem_ctrls.dram.perBankRdBursts::5          604                       # Per bank write bursts
system.mem_ctrls.dram.perBankRdBursts::6          480                       # Per bank write bursts
system.mem_ctrls.dram.perBankRdBursts::7          483                       # Per bank write bursts
system.mem_ctrls.dram.perBankRdBursts::8          425                       # Per bank write bursts
system.mem_ctrls.dram.perBankRdBursts::9          353                       # Per bank write bursts
system.mem_ctrls.dram.perBankRdBursts::10          434                       # Per bank write bursts
system.mem_ctrls.dram.perBankRdBursts::11          455                       # Per bank write bursts
system.mem_ctrls.dram.perBankRdBursts::12          354                       # Per bank write bursts
system.mem_ctrls.dram.perBankRdBursts::13          354                       # Per bank write bursts
system.mem_ctrls.dram.perBankRdBursts::14          288                       # Per bank write bursts
system.mem_ctrls.dram.perBankRdBursts::15          371                       # Per bank write bursts
system.mem_ctrls.dram.perBankWrBursts::0            0                       # Per bank write bursts
system.mem_ctrls.dram.perBankWrBursts::1            0                       # Per bank write bursts
system.mem_ctrls.dram.perBankWrBursts::2           96                       # Per bank write bursts
system.mem_ctrls.dram.perBankWrBursts::3            9                       # Per bank write bursts
system.mem_ctrls.dram.perBankWrBursts::4           13                       # Per bank write bursts
system.mem_ctrls.dram.perBankWrBursts::5           34                       # Per bank write bursts
system.mem_ctrls.dram.perBankWrBursts::6            6                       # Per bank write bursts
system.mem_ctrls.dram.perBankWrBursts::7            6                       # Per bank write bursts
system.mem_ctrls.dram.perBankWrBursts::8            1                       # Per bank write bursts
system.mem_ctrls.dram.perBankWrBursts::9            0                       # Per bank write bursts
system.mem_ctrls.dram.perBankWrBursts::10            1                       # Per bank write bursts
system.mem_ctrls.dram.perBankWrBursts::11            0                       # Per bank write bursts
system.mem_ctrls.dram.perBankWrBursts::12            1                       # Per bank write bursts
system.mem_ctrls.dram.perBankWrBursts::13            2                       # Per bank write bursts
system.mem_ctrls.dram.perBankWrBursts::14            0                       # Per bank write bursts
system.mem_ctrls.dram.perBankWrBursts::15            2                       # Per bank write bursts
system.mem_ctrls.dram.totQLat                45823750                       # Total ticks spent queuing
system.mem_ctrls.dram.totBusLat              35295000                       # Total ticks spent in databus transfers
system.mem_ctrls.dram.totMemAccLat          178180000                       # Total ticks spent from burst creation until serviced by the DRAM
system.mem_ctrls.dram.avgQLat                 6491.54                       # Average queueing delay per DRAM burst
system.mem_ctrls.dram.avgBusLat               5000.00                       # Average bus latency per DRAM burst
system.mem_ctrls.dram.avgMemAccLat           25241.54                       # Average memory access latency per DRAM burst
system.mem_ctrls.dram.readRowHits                5889                       # Number of row buffer hits during reads
system.mem_ctrls.dram.writeRowHits                137                       # Number of row buffer hits during writes
system.mem_ctrls.dram.readRowHitRate            83.43                       # Row buffer hit rate for reads
system.mem_ctrls.dram.writeRowHitRate           80.12                       # Row buffer hit rate for writes
system.mem_ctrls.dram.bytesPerActivate::samples         1198                       # Bytes accessed per row activation
system.mem_ctrls.dram.bytesPerActivate::mean   385.388982                       # Bytes accessed per row activation
system.mem_ctrls.dram.bytesPerActivate::gmean   272.368710                       # Bytes accessed per row activation
system.mem_ctrls.dram.bytesPerActivate::stdev   311.637764                       # Bytes accessed per row activation
system.mem_ctrls.dram.bytesPerActivate::0-127          181     15.11%     15.11% # Bytes accessed per row activation
system.mem_ctrls.dram.bytesPerActivate::128-255          385     32.14%     47.25% # Bytes accessed per row activation
system.mem_ctrls.dram.bytesPerActivate::256-383           99      8.26%     55.51% # Bytes accessed per row activation
system.mem_ctrls.dram.bytesPerActivate::384-511          208     17.36%     72.87% # Bytes accessed per row activation
system.mem_ctrls.dram.bytesPerActivate::512-639           80      6.68%     79.55% # Bytes accessed per row activation
system.mem_ctrls.dram.bytesPerActivate::640-767           34      2.84%     82.39% # Bytes accessed per row activation
system.mem_ctrls.dram.bytesPerActivate::768-895           40      3.34%     85.73% # Bytes accessed per row activation
system.mem_ctrls.dram.bytesPerActivate::896-1023           23      1.92%     87.65% # Bytes accessed per row activation
system.mem_ctrls.dram.bytesPerActivate::1024-1151          148     12.35%    100.00% # Bytes accessed per row activation
system.mem_ctrls.dram.bytesPerActivate::total         1198                       # Bytes accessed per row activation
system.mem_ctrls.dram.bytesRead                451776                       # Total number of bytes read from DRAM
system.mem_ctrls.dram.bytesWritten              10944                       # Total number of bytes written to DRAM
system.mem_ctrls.dram.avgRdBW               86.947058                       # Average DRAM read bandwidth in MiBytes/s
system.mem_ctrls.dram.avgWrBW                2.106240                       # Average DRAM write bandwidth in MiBytes/s
system.mem_ctrls.dram.peakBW                 12800.00                       # Theoretical peak bandwidth in MiByte/s
system.mem_ctrls.dram.busUtil                    0.70                       # Data bus utilization in percentage
system.mem_ctrls.dram.busUtilRead                0.68                       # Data bus utilization in percentage for reads
system.mem_ctrls.dram.busUtilWrite               0.02                       # Data bus utilization in percentage for writes
system.mem_ctrls.dram.pageHitRate               83.35                       # Row buffer hit rate, read and write combined
system.mem_ctrls.dram.power_state.pwrStateResidencyTicks::UNDEFINED   5195989500                       # Cumulative time (in ticks) in various power states
system.mem_ctrls.dram.rank0.actEnergy         5090820                       # Energy for activate commands per rank (pJ)
system.mem_ctrls.dram.rank0.preEnergy         2694450                       # Energy for precharge commands per rank (pJ)
system.mem_ctrls.dram.rank0.readEnergy       28738500                       # Energy for read commands per rank (pJ)
system.mem_ctrls.dram.rank0.writeEnergy        856080                       # Energy for write commands per rank (pJ)
system.mem_ctrls.dram.rank0.refreshEnergy 409964880.000000                       # Energy for refresh commands per rank (pJ)
system.mem_ctrls.dram.rank0.actBackEnergy    905144040                       # Energy for active background per rank (pJ)
system.mem_ctrls.dram.rank0.preBackEnergy   1233033600                       # Energy for precharge background per rank (pJ)
system.mem_ctrls.dram.rank0.actPowerDownEnergy            0                       # Energy for active power-down per rank (pJ)
system.mem_ctrls.dram.rank0.prePowerDownEnergy            0                       # Energy for precharge power-down per rank (pJ)
system.mem_ctrls.dram.rank0.selfRefreshEnergy            0                       # Energy for self refresh per rank (pJ)
system.mem_ctrls.dram.rank0.totalEnergy    2585522370                       # Total energy per rank (pJ)
system.mem_ctrls.dram.rank0.averagePower   497.599614                       # Core power per rank (mW)
system.mem_ctrls.dram.rank0.totalIdleTime            0                       # Total Idle time Per DRAM Rank
system.mem_ctrls.dram.rank0.pwrStateTime::IDLE   3196384750                       # Time in different power states
system.mem_ctrls.dram.rank0.pwrStateTime::REF    173420000                       # Time in different power states
system.mem_ctrls.dram.rank0.pwrStateTime::SREF            0                       # Time in different power states
system.mem_ctrls.dram.rank0.pwrStateTime::PRE_PDN            0                       # Time in different power states
system.mem_ctrls.dram.rank0.pwrStateTime::ACT   1826184750                       # Time in different power states
system.mem_ctrls.dram.rank0.pwrStateTime::ACT_PDN            0                       # Time in different power states
system.mem_ctrls.dram.rank1.actEnergy         3505740                       # Energy for activate commands per rank (pJ)
system.mem_ctrls.dram.rank1.preEnergy         1851960                       # Energy for precharge commands per rank (pJ)
system.mem_ctrls.dram.rank1.readEnergy       21662760                       # Energy for read commands per rank (pJ)
system.mem_ctrls.dram.rank1.writeEnergy         36540                       # Energy for write commands per rank (pJ)
system.mem_ctrls.dram.rank1.refreshEnergy 409964880.000000                       # Energy for refresh commands per rank (pJ)
system.mem_ctrls.dram.rank1.actBackEnergy    720639030                       # Energy for active background per rank (pJ)
system.mem_ctrls.dram.rank1.preBackEnergy   1388406240                       # Energy for precharge background per rank (pJ)
system.mem_ctrls.dram.rank1.actPowerDownEnergy            0                       # Energy for active power-down per rank (pJ)
system.mem_ctrls.dram.rank1.prePowerDownEnergy            0                       # Energy for precharge power-down per rank (pJ)
system.mem_ctrls.dram.rank1.selfRefreshEnergy            0                       # Energy for self refresh per rank (pJ)
system.mem_ctrls.dram.rank1.totalEnergy    2546067150                       # Total energy per rank (pJ)
system.mem_ctrls.dram.rank1.averagePower   490.006215                       # Core power per rank (mW)
system.mem_ctrls.dram.rank1.totalIdleTime            0                       # Total Idle time Per DRAM Rank
system.mem_ctrls.dram.rank1.pwrStateTime::IDLE   3602722750                       # Time in different power states
system.mem_ctrls.dram.rank1.pwrStateTime::REF    173420000                       # Time in different power states
system.mem_ctrls.dram.rank1.pwrStateTime::SREF            0                       # Time in different power states
system.mem_ctrls.dram.rank1.pwrStateTime::PRE_PDN            0                       # Time in different power states
system.mem_ctrls.dram.rank1.pwrStateTime::ACT   1419846750                       # Time in different power states
system.mem_ctrls.dram.rank1.pwrStateTime::ACT_PDN            0                       # Time in different power states
system.mem_ctrls.power_state.pwrStateResidencyTicks::UNDEFINED   5195989500                       # Cumulative time (in ticks) in various power states
system.membus.trans_dist::ReadResp               3503                       # Transaction distribution
system.membus.trans_dist::WritebackDirty          201                       # Transaction distribution
system.membus.trans_dist::CleanEvict              139                       # Transaction distribution
system.membus.trans_dist::ReadExReq              3560                       # Transaction distribution
system.membus.trans_dist::ReadExResp             3560                       # Transaction distribution
system.membus.trans_dist::ReadSharedReq          3503                       # Transaction distribution
system.membus.pkt_count_system.l2.mem_side_port::system.mem_ctrls.port        14466                       # Packet count per connected requestor and responder (bytes)
system.membus.pkt_count_system.l2.mem_side_port::total        14466                       # Packet count per connected requestor and responder (bytes)
system.membus.pkt_count::total                  14466                       # Packet count per connected requestor and responder (bytes)
system.membus.pkt_size_system.l2.mem_side_port::system.mem_ctrls.port       464896                       # Cumulative packet size per connected requestor and responder (bytes)
system.membus.pkt_size_system.l2.mem_side_port::total       464896                       # Cumulative packet size per connected requestor and responder (bytes)
system.membus.pkt_size::total                  464896                       # Cumulative packet size per connected requestor and responder (bytes)
system.membus.snoops                                0                       # Total snoops (count)
system.membus.snoopTraffic                          0                       # Total snoop traffic (bytes)
system.membus.snoop_fanout::samples              7063                       # Request fanout histogram
system.membus.snoop_fanout::mean                    0                       # Request fanout histogram
system.membus.snoop_fanout::stdev                   0                       # Request fanout histogram
system.membus.snoop_fanout::underflows              0      0.00%      0.00% # Request fanout histogram
system.membus.snoop_fanout::0                    7063    100.00%    100.00% # Request fanout histogram
system.membus.snoop_fanout::1                       0      0.00%    100.00% # Request fanout histogram
system.membus.snoop_fanout::overflows               0      0.00%    100.00% # Request fanout histogram
system.membus.snoop_fanout::min_value               0                       # Request fanout histogram
system.membus.snoop_fanout::max_value               0                       # Request fanout histogram
system.membus.snoop_fanout::total                7063                       # Request fanout histogram
system.membus.power_state.pwrStateResidencyTicks::UNDEFINED   5195989500                       # Cumulative time (in ticks) in various power states
system.membus.reqLayer0.occupancy             4103500                       # Layer occupancy (ticks)
system.membus.reqLayer0.utilization               0.1                       # Layer utilization (%)
system.membus.respLayer1.occupancy           19161500                       # Layer occupancy (ticks)
system.membus.respLayer1.utilization              0.4                       # Layer utilization (%)
system.tol2bus.trans_dist::ReadResp              6789                       # Transaction distribution
system.tol2bus.trans_dist::WritebackDirty         6584                       # Transaction distribution
system.tol2bus.trans_dist::WritebackClean          407                       # Transaction distribution
system.tol2bus.trans_dist::CleanEvict            2539                       # Transaction distribution
system.tol2bus.trans_dist::UpgradeReq               1                       # Transaction distribution
system.tol2bus.trans_dist::UpgradeResp              1                       # Transaction distribution
system.tol2bus.trans_dist::ReadExReq             3655                       # Transaction distribution
system.tol2bus.trans_dist::ReadExResp            3655                       # Transaction distribution
system.tol2bus.trans_dist::ReadCleanReq          1362                       # Transaction distribution
system.tol2bus.trans_dist::ReadSharedReq         5428                       # Transaction distribution
system.tol2bus.pkt_count_system.cpu.icache.mem_side_port::system.l2.cpu_side_port         3125                       # Packet count per connected requestor and responder (bytes)
system.tol2bus.pkt_count_system.cpu.dcache.mem_side_port::system.l2.cpu_side_port        26739                       # Packet count per connected requestor and responder (bytes)
system.tol2bus.pkt_count::total                 29864                       # Packet count per connected requestor and responder (bytes)
system.tol2bus.pkt_size_system.cpu.icache.mem_side_port::system.l2.cpu_side_port       112832                       # Cumulative packet size per connected requestor and responder (bytes)
system.tol2bus.pkt_size_system.cpu.dcache.mem_side_port::system.l2.cpu_side_port       989824                       # Cumulative packet size per connected requestor and responder (bytes)
system.tol2bus.pkt_size::total                1102656                       # Cumulative packet size per connected requestor and responder (bytes)
system.tol2bus.snoops                             557                       # Total snoops (count)
system.tol2bus.snoopTraffic                     13184                       # Total snoop traffic (bytes)
system.tol2bus.snoop_fanout::samples            10998                       # Request fanout histogram
system.tol2bus.snoop_fanout::mean            0.020731                       # Request fanout histogram
system.tol2bus.snoop_fanout::stdev           0.142489                       # Request fanout histogram
system.tol2bus.snoop_fanout::underflows             0      0.00%      0.00% # Request fanout histogram
system.tol2bus.snoop_fanout::0                  10770     97.93%     97.93% # Request fanout histogram
system.tol2bus.snoop_fanout::1                    228      2.07%    100.00% # Request fanout histogram
system.tol2bus.snoop_fanout::2                      0      0.00%    100.00% # Request fanout histogram
system.tol2bus.snoop_fanout::3                      0      0.00%    100.00% # Request fanout histogram
system.tol2bus.snoop_fanout::4                      0      0.00%    100.00% # Request fanout histogram
system.tol2bus.snoop_fanout::overflows              0      0.00%    100.00% # Request fanout histogram
system.tol2bus.snoop_fanout::min_value              0                       # Request fanout histogram
system.tol2bus.snoop_fanout::max_value              1                       # Request fanout histogram
system.tol2bus.snoop_fanout::total              10998                       # Request fanout histogram
system.tol2bus.power_state.pwrStateResidencyTicks::UNDEFINED   5195989500                       # Cumulative time (in ticks) in various power states
system.tol2bus.reqLayer0.occupancy           16502000                       # Layer occupancy (ticks)
system.tol2bus.reqLayer0.utilization              0.3                       # Layer utilization (%)
system.tol2bus.respLayer0.occupancy           2041500                       # Layer occupancy (ticks)
system.tol2bus.respLayer0.utilization             0.0                       # Layer utilization (%)
system.tol2bus.respLayer1.occupancy          13625000                       # Layer occupancy (ticks)
system.tol2bus.respLayer1.utilization             0.3                       # Layer utilization (%)
system.voltage_domain.voltage                       1                       # Voltage in Volts

---------- End Simulation Statistics   ----------
