
---------- Begin Simulation Statistics ----------
final_tick                                 5193945000                       # Number of ticks from beginning of simulation (restored from checkpoints and never reset)
host_inst_rate                                  87903                       # Simulator instruction rate (inst/s)
host_mem_usage                                1206052                       # Number of bytes of host memory used
host_op_rate                                   157712                       # Simulator op (including micro ops) rate (op/s)
host_seconds                                   220.30                       # Real time elapsed on the host
host_tick_rate                               23576835                       # Simulator tick rate (ticks/s)
sim_freq                                 1000000000000                       # Frequency of simulated ticks
sim_insts                                    19365005                       # Number of instructions simulated
sim_ops                                      34743763                       # Number of ops (including micro ops) simulated
sim_seconds                                  0.005194                       # Number of seconds simulated
sim_ticks                                  5193945000                       # Number of ticks simulated
system.cpu.cc_regfile_reads                  10399279                       # number of cc regfile reads
system.cpu.cc_regfile_writes                  5845807                       # number of cc regfile writes
system.cpu.committedInsts                    19365005                       # Number of Instructions Simulated
system.cpu.committedOps                      34743763                       # Number of Ops (including micro ops) Simulated
system.cpu.cpi                               0.536426                       # CPI: Cycles Per Instruction
system.cpu.cpi_total                         0.536426                       # CPI: Total CPI of All Threads
system.cpu.fp_regfile_reads                   2189475                       # number of floating regfile reads
system.cpu.fp_regfile_writes                  3620254                       # number of floating regfile writes
system.cpu.idleCycles                           97227                       # Total number of cycles that the CPU has spent unscheduled due to idling
system.cpu.iew.branchMispredicts                18493                       # Number of branch mispredicts detected at execute
system.cpu.iew.exec_branches                  3314703                       # Number of branches executed
system.cpu.iew.exec_nop                             0                       # number of nop insts executed
system.cpu.iew.exec_rate                     3.386840                       # Inst execution rate
system.cpu.iew.exec_refs                     12138593                       # number of memory reference insts executed
system.cpu.iew.exec_stores                    4093857                       # Number of stores executed
system.cpu.iew.exec_swp                             0                       # number of swp insts executed
system.cpu.iew.iewBlockCycles                  155995                       # Number of cycles IEW is blocking
system.cpu.iew.iewDispLoadInsts               8079541                       # Number of dispatched load instructions
system.cpu.iew.iewDispNonSpecInsts                 43                       # Number of dispatched non-speculative instructions
system.cpu.iew.iewDispSquashedInsts               405                       # Number of squashed instructions skipped by dispatch
system.cpu.iew.iewDispStoreInsts              4114231                       # Number of dispatched store instructions
system.cpu.iew.iewDispatchedInsts            35445138                       # Number of instructions dispatched to IQ
system.cpu.iew.iewExecLoadInsts               8044736                       # Number of load instructions executed
system.cpu.iew.iewExecSquashedInsts             48370                       # Number of squashed instructions skipped in execute
system.cpu.iew.iewExecutedInsts              35182123                       # Number of executed instructions
system.cpu.iew.iewIQFullEvents                    846                       # Number of times the IQ has become full, causing a stall
system.cpu.iew.iewIdleCycles                        0                       # Number of cycles IEW is idle
system.cpu.iew.iewLSQFullEvents                135138                       # Number of times the LSQ has become full, causing a stall
system.cpu.iew.iewSquashCycles                  18128                       # Number of cycles IEW is squashing
system.cpu.iew.iewUnblockCycles                137667                       # Number of cycles IEW is unblocking
system.cpu.iew.memOrderViolationEvents            507                       # Number of memory order violations
system.cpu.iew.predictedNotTakenIncorrect        13329                       # Number of branches that were predicted not taken incorrectly
system.cpu.iew.predictedTakenIncorrect           5164                       # Number of branches that were predicted taken incorrectly
system.cpu.iew.wb_consumers                  33054574                       # num instructions consuming a value
system.cpu.iew.wb_count                      35154282                       # cumulative count of insts written-back
system.cpu.iew.wb_fanout                     0.705975                       # average fanout of values written-back
system.cpu.iew.wb_producers                  23335692                       # num instructions producing a value
system.cpu.iew.wb_rate                       3.384160                       # insts written-back per cycle
system.cpu.iew.wb_sent                       35164989                       # cumulative count of insts sent to commit
system.cpu.int_regfile_reads                 55630631                       # number of integer regfile reads
system.cpu.int_regfile_writes                24165144                       # number of integer regfile writes
system.cpu.ipc                               1.864190                       # IPC: Instructions Per Cycle
system.cpu.ipc_total                         1.864190                       # IPC: Total IPC of All Threads
system.cpu.iq.FU_type_0::No_OpClass            100491      0.29%      0.29% # Type of FU issued
system.cpu.iq.FU_type_0::IntAlu              20312371     57.66%     57.94% # Type of FU issued
system.cpu.iq.FU_type_0::IntMult               518299      1.47%     59.41% # Type of FU issued
system.cpu.iq.FU_type_0::IntDiv                 54287      0.15%     59.57% # Type of FU issued
system.cpu.iq.FU_type_0::FloatAdd             1521011      4.32%     63.88% # Type of FU issued
system.cpu.iq.FU_type_0::FloatCmp                   0      0.00%     63.88% # Type of FU issued
system.cpu.iq.FU_type_0::FloatCvt                  64      0.00%     63.88% # Type of FU issued
system.cpu.iq.FU_type_0::FloatMult                  0      0.00%     63.88% # Type of FU issued
system.cpu.iq.FU_type_0::FloatMultAcc               0      0.00%     63.88% # Type of FU issued
system.cpu.iq.FU_type_0::FloatDiv                   0      0.00%     63.88% # Type of FU issued
system.cpu.iq.FU_type_0::FloatMisc                  0      0.00%     63.88% # Type of FU issued
system.cpu.iq.FU_type_0::FloatSqrt                  0      0.00%     63.88% # Type of FU issued
system.cpu.iq.FU_type_0::SimdAdd                  476      0.00%     63.88% # Type of FU issued
system.cpu.iq.FU_type_0::SimdAddAcc                 0      0.00%     63.88% # Type of FU issued
system.cpu.iq.FU_type_0::SimdAlu                21308      0.06%     63.95% # Type of FU issued
system.cpu.iq.FU_type_0::SimdCmp                    0      0.00%     63.95% # Type of FU issued
system.cpu.iq.FU_type_0::SimdCvt                11195      0.03%     63.98% # Type of FU issued
system.cpu.iq.FU_type_0::SimdMisc               27937      0.08%     64.06% # Type of FU issued
system.cpu.iq.FU_type_0::SimdMult                   0      0.00%     64.06% # Type of FU issued
system.cpu.iq.FU_type_0::SimdMultAcc                0      0.00%     64.06% # Type of FU issued
system.cpu.iq.FU_type_0::SimdShift                501      0.00%     64.06% # Type of FU issued
system.cpu.iq.FU_type_0::SimdShiftAcc               0      0.00%     64.06% # Type of FU issued
system.cpu.iq.FU_type_0::SimdDiv                    0      0.00%     64.06% # Type of FU issued
system.cpu.iq.FU_type_0::SimdSqrt                   0      0.00%     64.06% # Type of FU issued
system.cpu.iq.FU_type_0::SimdFloatAdd               0      0.00%     64.06% # Type of FU issued
system.cpu.iq.FU_type_0::SimdFloatAlu               0      0.00%     64.06% # Type of FU issued
system.cpu.iq.FU_type_0::SimdFloatCmp               0      0.00%     64.06% # Type of FU issued
system.cpu.iq.FU_type_0::SimdFloatCvt          508516      1.44%     65.50% # Type of FU issued
system.cpu.iq.FU_type_0::SimdFloatDiv               0      0.00%     65.50% # Type of FU issued
system.cpu.iq.FU_type_0::SimdFloatMisc              0      0.00%     65.50% # Type of FU issued
system.cpu.iq.FU_type_0::SimdFloatMult              0      0.00%     65.50% # Type of FU issued
system.cpu.iq.FU_type_0::SimdFloatMultAcc            0      0.00%     65.50% # Type of FU issued
system.cpu.iq.FU_type_0::SimdFloatSqrt              0      0.00%     65.50% # Type of FU issued
system.cpu.iq.FU_type_0::SimdReduceAdd              0      0.00%     65.50% # Type of FU issued
system.cpu.iq.FU_type_0::SimdReduceAlu              0      0.00%     65.50% # Type of FU issued
system.cpu.iq.FU_type_0::SimdReduceCmp              0      0.00%     65.50% # Type of FU issued
system.cpu.iq.FU_type_0::SimdFloatReduceAdd            0      0.00%     65.50% # Type of FU issued
system.cpu.iq.FU_type_0::SimdFloatReduceCmp            0      0.00%     65.50% # Type of FU issued
system.cpu.iq.FU_type_0::SimdAes                    0      0.00%     65.50% # Type of FU issued
system.cpu.iq.FU_type_0::SimdAesMix                 0      0.00%     65.50% # Type of FU issued
system.cpu.iq.FU_type_0::SimdSha1Hash               0      0.00%     65.50% # Type of FU issued
system.cpu.iq.FU_type_0::SimdSha1Hash2              0      0.00%     65.50% # Type of FU issued
system.cpu.iq.FU_type_0::SimdSha256Hash             0      0.00%     65.50% # Type of FU issued
system.cpu.iq.FU_type_0::SimdSha256Hash2            0      0.00%     65.50% # Type of FU issued
system.cpu.iq.FU_type_0::SimdShaSigma2              0      0.00%     65.50% # Type of FU issued
system.cpu.iq.FU_type_0::SimdShaSigma3              0      0.00%     65.50% # Type of FU issued
system.cpu.iq.FU_type_0::SimdPredAlu                0      0.00%     65.50% # Type of FU issued
system.cpu.iq.FU_type_0::MemRead              6008659     17.06%     82.56% # Type of FU issued
system.cpu.iq.FU_type_0::MemWrite             3062090      8.69%     91.25% # Type of FU issued
system.cpu.iq.FU_type_0::FloatMemRead         2047939      5.81%     97.06% # Type of FU issued
system.cpu.iq.FU_type_0::FloatMemWrite        1035349      2.94%    100.00% # Type of FU issued
system.cpu.iq.FU_type_0::IprAccess                  0      0.00%    100.00% # Type of FU issued
system.cpu.iq.FU_type_0::InstPrefetch               0      0.00%    100.00% # Type of FU issued
system.cpu.iq.FU_type_0::total               35230493                       # Type of FU issued
system.cpu.iq.fp_alu_accesses                 5188645                       # Number of floating point alu accesses
system.cpu.iq.fp_inst_queue_reads            10371262                       # Number of floating instruction queue reads
system.cpu.iq.fp_inst_queue_wakeup_accesses      5172530                       # Number of floating instruction queue wakeup accesses
system.cpu.iq.fp_inst_queue_writes            5208062                       # Number of floating instruction queue writes
system.cpu.iq.fu_busy_cnt                      628350                       # FU busy when requested
system.cpu.iq.fu_busy_rate                   0.017835                       # FU busy rate (busy events/executed inst)
system.cpu.iq.fu_full::No_OpClass                   0      0.00%      0.00% # attempts to use FU when none available
system.cpu.iq.fu_full::IntAlu                  340728     54.23%     54.23% # attempts to use FU when none available
system.cpu.iq.fu_full::IntMult                      0      0.00%     54.23% # attempts to use FU when none available
system.cpu.iq.fu_full::IntDiv                       0      0.00%     54.23% # attempts to use FU when none available
system.cpu.iq.fu_full::FloatAdd                     0      0.00%     54.23% # attempts to use FU when none available
system.cpu.iq.fu_full::FloatCmp                     0      0.00%     54.23% # attempts to use FU when none available
system.cpu.iq.fu_full::FloatCvt                     0      0.00%     54.23% # attempts to use FU when none available
system.cpu.iq.fu_full::FloatMult                    0      0.00%     54.23% # attempts to use FU when none available
system.cpu.iq.fu_full::FloatMultAcc                 0      0.00%     54.23% # attempts to use FU when none available
system.cpu.iq.fu_full::FloatDiv                     0      0.00%     54.23% # attempts to use FU when none available
system.cpu.iq.fu_full::FloatMisc                    0      0.00%     54.23% # attempts to use FU when none available
system.cpu.iq.fu_full::FloatSqrt                    0      0.00%     54.23% # attempts to use FU when none available
system.cpu.iq.fu_full::SimdAdd                      0      0.00%     54.23% # attempts to use FU when none available
system.cpu.iq.fu_full::SimdAddAcc                   0      0.00%     54.23% # attempts to use FU when none available
system.cpu.iq.fu_full::SimdAlu                   1012      0.16%     54.39% # attempts to use FU when none available
system.cpu.iq.fu_full::SimdCmp                      0      0.00%     54.39% # attempts to use FU when none available
system.cpu.iq.fu_full::SimdCvt                     19      0.00%     54.39% # attempts to use FU when none available
system.cpu.iq.fu_full::SimdMisc                     5      0.00%     54.39% # attempts to use FU when none available
system.cpu.iq.fu_full::SimdMult                     0      0.00%     54.39% # attempts to use FU when none available
system.cpu.iq.fu_full::SimdMultAcc                  0      0.00%     54.39% # attempts to use FU when none available
system.cpu.iq.fu_full::SimdShift                   16      0.00%     54.39% # attempts to use FU when none available
system.cpu.iq.fu_full::SimdShiftAcc                 0      0.00%     54.39% # attempts to use FU when none available
system.cpu.iq.fu_full::SimdDiv                      0      0.00%     54.39% # attempts to use FU when none available
system.cpu.iq.fu_full::SimdSqrt                     0      0.00%     54.39% # attempts to use FU when none available
system.cpu.iq.fu_full::SimdFloatAdd                 0      0.00%     54.39% # attempts to use FU when none available
system.cpu.iq.fu_full::SimdFloatAlu                 0      0.00%     54.39% # attempts to use FU when none available
system.cpu.iq.fu_full::SimdFloatCmp                 0      0.00%     54.39% # attempts to use FU when none available
system.cpu.iq.fu_full::SimdFloatCvt                 0      0.00%     54.39% # attempts to use FU when none available
system.cpu.iq.fu_full::SimdFloatDiv                 0      0.00%     54.39% # attempts to use FU when none available
system.cpu.iq.fu_full::SimdFloatMisc                0      0.00%     54.39% # attempts to use FU when none available
system.cpu.iq.fu_full::SimdFloatMult                0      0.00%     54.39% # attempts to use FU when none available
system.cpu.iq.fu_full::SimdFloatMultAcc             0      0.00%     54.39% # attempts to use FU when none available
system.cpu.iq.fu_full::SimdFloatSqrt                0      0.00%     54.39% # attempts to use FU when none available
system.cpu.iq.fu_full::SimdReduceAdd                0      0.00%     54.39% # attempts to use FU when none available
system.cpu.iq.fu_full::SimdReduceAlu                0      0.00%     54.39% # attempts to use FU when none available
system.cpu.iq.fu_full::SimdReduceCmp                0      0.00%     54.39% # attempts to use FU when none available
system.cpu.iq.fu_full::SimdFloatReduceAdd            0      0.00%     54.39% # attempts to use FU when none available
system.cpu.iq.fu_full::SimdFloatReduceCmp            0      0.00%     54.39% # attempts to use FU when none available
system.cpu.iq.fu_full::SimdAes                      0      0.00%     54.39% # attempts to use FU when none available
system.cpu.iq.fu_full::SimdAesMix                   0      0.00%     54.39% # attempts to use FU when none available
system.cpu.iq.fu_full::SimdSha1Hash                 0      0.00%     54.39% # attempts to use FU when none available
system.cpu.iq.fu_full::SimdSha1Hash2                0      0.00%     54.39% # attempts to use FU when none available
system.cpu.iq.fu_full::SimdSha256Hash               0      0.00%     54.39% # attempts to use FU when none available
system.cpu.iq.fu_full::SimdSha256Hash2              0      0.00%     54.39% # attempts to use FU when none available
system.cpu.iq.fu_full::SimdShaSigma2                0      0.00%     54.39% # attempts to use FU when none available
system.cpu.iq.fu_full::SimdShaSigma3                0      0.00%     54.39% # attempts to use FU when none available
system.cpu.iq.fu_full::SimdPredAlu                  0      0.00%     54.39% # attempts to use FU when none available
system.cpu.iq.fu_full::MemRead                 277257     44.12%     98.52% # attempts to use FU when none available
system.cpu.iq.fu_full::MemWrite                  4279      0.68%     99.20% # attempts to use FU when none available
system.cpu.iq.fu_full::FloatMemRead              2008      0.32%     99.52% # attempts to use FU when none available
system.cpu.iq.fu_full::FloatMemWrite             3026      0.48%    100.00% # attempts to use FU when none available
system.cpu.iq.fu_full::IprAccess                    0      0.00%    100.00% # attempts to use FU when none available
system.cpu.iq.fu_full::InstPrefetch                 0      0.00%    100.00% # attempts to use FU when none available
system.cpu.iq.int_alu_accesses               30569707                       # Number of integer alu accesses
system.cpu.iq.int_inst_queue_reads           71014114                       # Number of integer instruction queue reads
system.cpu.iq.int_inst_queue_wakeup_accesses     29981752                       # Number of integer instruction queue wakeup accesses
system.cpu.iq.int_inst_queue_writes          30938947                       # Number of integer instruction queue writes
system.cpu.iq.iqInstsAdded                   35445093                       # Number of instructions added to the IQ (excludes non-spec)
system.cpu.iq.iqInstsIssued                  35230493                       # Number of instructions issued
system.cpu.iq.iqNonSpecInstsAdded                  45                       # Number of non-speculative instructions added to the IQ
system.cpu.iq.iqSquashedInstsExamined          701369                       # Number of squashed instructions iterated over during squash; mainly for profiling
system.cpu.iq.iqSquashedInstsIssued              5376                       # Number of squashed instructions issued
system.cpu.iq.iqSquashedNonSpecRemoved              9                       # Number of squashed non-spec instructions that were removed
system.cpu.iq.iqSquashedOperandsExamined       915802                       # Number of squashed operands that are examined and possibly removed from graph
system.cpu.iq.issued_per_cycle::samples      10290664                       # Number of insts issued each cycle
system.cpu.iq.issued_per_cycle::mean         3.423539                       # Number of insts issued each cycle
system.cpu.iq.issued_per_cycle::stdev        1.897663                       # Number of insts issued each cycle
system.cpu.iq.issued_per_cycle::underflows            0      0.00%      0.00% # Number of insts issued each cycle
system.cpu.iq.issued_per_cycle::0             1135069     11.03%     11.03% # Number of insts issued each cycle
system.cpu.iq.issued_per_cycle::1              484778      4.71%     15.74% # Number of insts issued each cycle
system.cpu.iq.issued_per_cycle::2             1523194     14.80%     30.54% # Number of insts issued each cycle
system.cpu.iq.issued_per_cycle::3             1954994     19.00%     49.54% # Number of insts issued each cycle
system.cpu.iq.issued_per_cycle::4             2042893     19.85%     69.39% # Number of insts issued each cycle
system.cpu.iq.issued_per_cycle::5             1658765     16.12%     85.51% # Number of insts issued each cycle
system.cpu.iq.issued_per_cycle::6             1151583     11.19%     96.70% # Number of insts issued each cycle
system.cpu.iq.issued_per_cycle::7              255654      2.48%     99.19% # Number of insts issued each cycle
system.cpu.iq.issued_per_cycle::8               83734      0.81%    100.00% # Number of insts issued each cycle
system.cpu.iq.issued_per_cycle::overflows            0      0.00%    100.00% # Number of insts issued each cycle
system.cpu.iq.issued_per_cycle::min_value            0                       # Number of insts issued each cycle
system.cpu.iq.issued_per_cycle::max_value            8                       # Number of insts issued each cycle
system.cpu.iq.issued_per_cycle::total        10290664                       # Number of insts issued each cycle
system.cpu.iq.rate                           3.391496                       # Inst issue rate
system.cpu.iq.vec_alu_accesses                      0                       # Number of vector alu accesses
system.cpu.iq.vec_inst_queue_reads                  0                       # Number of vector instruction queue reads
system.cpu.iq.vec_inst_queue_wakeup_accesses            0                       # Number of vector instruction queue wakeup accesses
system.cpu.iq.vec_inst_queue_writes                 0                       # Number of vector instruction queue writes
system.cpu.memDep0.conflictingLoads           2567882                       # Number of conflicting loads.
system.cpu.memDep0.conflictingStores           902297                       # Number of conflicting stores.
system.cpu.memDep0.insertedLoads              8079541                       # Number of loads inserted to the mem dependence unit.
system.cpu.memDep0.insertedStores             4114231                       # Number of stores inserted to the mem dependence unit.
system.cpu.misc_regfile_reads                18247140                       # number of misc regfile reads
system.cpu.misc_regfile_writes                     36                       # number of misc regfile writes
system.cpu.numCycles                         10387891                       # number of cpu cycles simulated
system.cpu.numWorkItemsCompleted                    0                       # number of work items this cpu completed
system.cpu.numWorkItemsStarted                      0                       # number of work items this cpu started
system.cpu.timesIdled                             951                       # Number of times that the entire CPU went into an idle state and unscheduled itself
system.cpu.workload.numSyscalls                  1034                       # Number of system calls
system.membus.snoop_filter.hit_multi_requests            0                       # Number of requests hitting in the snoop filter with multiple (>1) holders of the requested data.
system.membus.snoop_filter.hit_multi_snoops            0                       # Number of snoops hitting in the snoop filter with multiple (>1) holders of the requested data.
system.membus.snoop_filter.hit_single_requests          171                       # Number of requests hitting in the snoop filter with a single holder of the requested data.
system.membus.snoop_filter.hit_single_snoops            0                       # Number of snoops hitting in the snoop filter with a single holder of the requested data.
system.membus.snoop_filter.tot_requests          7200                       # Total number of requests made to the snoop filter.
system.membus.snoop_filter.tot_snoops               0                       # Total number of snoops made to the snoop filter.
system.tol2bus.snoop_filter.hit_multi_requests           12                       # Number of requests hitting in the snoop filter with multiple (>1) holders of the requested data.
system.tol2bus.snoop_filter.hit_multi_snoops            0                       # Number of snoops hitting in the snoop filter with multiple (>1) holders of the requested data.
system.tol2bus.snoop_filter.hit_single_requests         9976                       # Number of requests hitting in the snoop filter with a single holder of the requested data.
system.tol2bus.snoop_filter.hit_single_snoops          148                       # Number of snoops hitting in the snoop filter with a single holder of the requested data.
system.tol2bus.snoop_filter.tot_requests        21849                       # Total number of requests made to the snoop filter.
system.tol2bus.snoop_filter.tot_snoops            148                       # Total number of snoops made to the snoop filter.
system.clk_domain.clock                           500                       # Clock period in ticks
system.cpu.branchPred.lookups                 3408222                       # Number of BP lookups
system.cpu.branchPred.condPredicted           1659659                       # Number of conditional branches predicted
system.cpu.branchPred.condIncorrect             20051                       # Number of conditional branches incorrect
system.cpu.branchPred.BTBLookups              1385149                       # Number of BTB lookups
system.cpu.branchPred.BTBHits                 1378071                       # Number of BTB hits
system.cpu.branchPred.BTBHitPct             99.489008                       # BTB Hit Percentage
system.cpu.branchPred.RASUsed                  573831                       # Number of times the RAS was used to get a target.
system.cpu.branchPred.RASIncorrect                989                       # Number of incorrect RAS predictions.
system.cpu.branchPred.indirectLookups          539925                       # Number of indirect predictor lookups.
system.cpu.branchPred.indirectHits             531478                       # Number of indirect target hits.
system.cpu.branchPred.indirectMisses             8447                       # Number of indirect misses.
system.cpu.branchPred.indirectMispredicted          331                       # Number of mispredicted indirect branches.
system.cpu.commit.commitSquashedInsts          649726                       # The number of squashed insts skipped by commit
system.cpu.commit.commitNonSpecStalls              36                       # The number of times commit has been forced to stall to communicate backwards
system.cpu.commit.branchMispredicts             16572                       # The number of times a branch was mispredicted
system.cpu.commit.numCommittedDist::samples     10198538                       # Number of insts commited each cycle
system.cpu.commit.numCommittedDist::mean     3.406740                       # Number of insts commited each cycle
system.cpu.commit.numCommittedDist::stdev     3.198884                       # Number of insts commited each cycle
system.cpu.commit.numCommittedDist::underflows            0      0.00%      0.00% # Number of insts commited each cycle
system.cpu.commit.numCommittedDist::0         2488115     24.40%     24.40% # Number of insts commited each cycle
system.cpu.commit.numCommittedDist::1         1335864     13.10%     37.50% # Number of insts commited each cycle
system.cpu.commit.numCommittedDist::2         1757971     17.24%     54.73% # Number of insts commited each cycle
system.cpu.commit.numCommittedDist::3          829479      8.13%     62.87% # Number of insts commited each cycle
system.cpu.commit.numCommittedDist::4          603202      5.91%     68.78% # Number of insts commited each cycle
system.cpu.commit.numCommittedDist::5           91200      0.89%     69.67% # Number of insts commited each cycle
system.cpu.commit.numCommittedDist::6           64884      0.64%     70.31% # Number of insts commited each cycle
system.cpu.commit.numCommittedDist::7           77176      0.76%     71.07% # Number of insts commited each cycle
system.cpu.commit.numCommittedDist::8         2950647     28.93%    100.00% # Number of insts commited each cycle
system.cpu.commit.numCommittedDist::overflows            0      0.00%    100.00% # Number of insts commited each cycle
system.cpu.commit.numCommittedDist::min_value            0                       # Number of insts commited each cycle
system.cpu.commit.numCommittedDist::max_value            8                       # Number of insts commited each cycle
system.cpu.commit.numCommittedDist::total     10198538                       # Number of insts commited each cycle
system.cpu.commit.instsCommitted             19365005                       # Number of instructions committed
system.cpu.commit.opsCommitted               34743763                       # Number of ops (including micro ops) committed
system.cpu.commit.memRefs                    12049572                       # Number of memory references committed
system.cpu.commit.loads                       7970902                       # Number of loads committed
system.cpu.commit.amos                              0                       # Number of atomic instructions committed
system.cpu.commit.membars                           0                       # Number of memory barriers committed
system.cpu.commit.branches                    3279695                       # Number of branches committed
system.cpu.commit.vector                            0                       # Number of committed Vector instructions.
system.cpu.commit.floating                    5165664                       # Number of committed floating point instructions.
system.cpu.commit.integer                    32565744                       # Number of committed integer instructions.
system.cpu.commit.functionCalls                563409                       # Number of function calls committed.
system.cpu.commit.committedInstType_0::No_OpClass        97178      0.28%      0.28% # Class of committed instruction
system.cpu.commit.committedInstType_0::IntAlu     19942484     57.40%     57.68% # Class of committed instruction
system.cpu.commit.committedInstType_0::IntMult       516166      1.49%     59.16% # Class of committed instruction
system.cpu.commit.committedInstType_0::IntDiv        54072      0.16%     59.32% # Class of committed instruction
system.cpu.commit.committedInstType_0::FloatAdd      1515774      4.36%     63.68% # Class of committed instruction
system.cpu.commit.committedInstType_0::FloatCmp            0      0.00%     63.68% # Class of committed instruction
system.cpu.commit.committedInstType_0::FloatCvt           64      0.00%     63.68% # Class of committed instruction
system.cpu.commit.committedInstType_0::FloatMult            0      0.00%     63.68% # Class of committed instruction
system.cpu.commit.committedInstType_0::FloatMultAcc            0      0.00%     63.68% # Class of committed instruction
system.cpu.commit.committedInstType_0::FloatDiv            0      0.00%     63.68% # Class of committed instruction
system.cpu.commit.committedInstType_0::FloatMisc            0      0.00%     63.68% # Class of committed instruction
system.cpu.commit.committedInstType_0::FloatSqrt            0      0.00%     63.68% # Class of committed instruction
system.cpu.commit.committedInstType_0::SimdAdd          372      0.00%     63.68% # Class of committed instruction
system.cpu.commit.committedInstType_0::SimdAddAcc            0      0.00%     63.68% # Class of committed instruction
system.cpu.commit.committedInstType_0::SimdAlu        20795      0.06%     63.74% # Class of committed instruction
system.cpu.commit.committedInstType_0::SimdCmp            0      0.00%     63.74% # Class of committed instruction
system.cpu.commit.committedInstType_0::SimdCvt        10808      0.03%     63.77% # Class of committed instruction
system.cpu.commit.committedInstType_0::SimdMisc        27759      0.08%     63.85% # Class of committed instruction
system.cpu.commit.committedInstType_0::SimdMult            0      0.00%     63.85% # Class of committed instruction
system.cpu.commit.committedInstType_0::SimdMultAcc            0      0.00%     63.85% # Class of committed instruction
system.cpu.commit.committedInstType_0::SimdShift          225      0.00%     63.86% # Class of committed instruction
system.cpu.commit.committedInstType_0::SimdShiftAcc            0      0.00%     63.86% # Class of committed instruction
system.cpu.commit.committedInstType_0::SimdDiv            0      0.00%     63.86% # Class of committed instruction
system.cpu.commit.committedInstType_0::SimdSqrt            0      0.00%     63.86% # Class of committed instruction
system.cpu.commit.committedInstType_0::SimdFloatAdd            0      0.00%     63.86% # Class of committed instruction
system.cpu.commit.committedInstType_0::SimdFloatAlu            0      0.00%     63.86% # Class of committed instruction
system.cpu.commit.committedInstType_0::SimdFloatCmp            0      0.00%     63.86% # Class of committed instruction
system.cpu.commit.committedInstType_0::SimdFloatCvt       508494      1.46%     65.32% # Class of committed instruction
system.cpu.commit.committedInstType_0::SimdFloatDiv            0      0.00%     65.32% # Class of committed instruction
system.cpu.commit.committedInstType_0::SimdFloatMisc            0      0.00%     65.32% # Class of committed instruction
system.cpu.commit.committedInstType_0::SimdFloatMult            0      0.00%     65.32% # Class of committed instruction
system.cpu.commit.committedInstType_0::SimdFloatMultAcc            0      0.00%     65.32% # Class of committed instruction
system.cpu.commit.committedInstType_0::SimdFloatSqrt            0      0.00%     65.32% # Class of committed instruction
system.cpu.commit.committedInstType_0::SimdReduceAdd            0      0.00%     65.32% # Class of committed instruction
system.cpu.commit.committedInstType_0::SimdReduceAlu            0      0.00%     65.32% # Class of committed instruction
system.cpu.commit.committedInstType_0::SimdReduceCmp            0      0.00%     65.32% # Class of committed instruction
system.cpu.commit.committedInstType_0::SimdFloatReduceAdd            0      0.00%     65.32% # Class of committed instruction
system.cpu.commit.committedInstType_0::SimdFloatReduceCmp            0      0.00%     65.32% # Class of committed instruction
system.cpu.commit.committedInstType_0::SimdAes            0      0.00%     65.32% # Class of committed instruction
system.cpu.commit.committedInstType_0::SimdAesMix            0      0.00%     65.32% # Class of committed instruction
system.cpu.commit.committedInstType_0::SimdSha1Hash            0      0.00%     65.32% # Class of committed instruction
system.cpu.commit.committedInstType_0::SimdSha1Hash2            0      0.00%     65.32% # Class of committed instruction
system.cpu.commit.committedInstType_0::SimdSha256Hash            0      0.00%     65.32% # Class of committed instruction
system.cpu.commit.committedInstType_0::SimdSha256Hash2            0      0.00%     65.32% # Class of committed instruction
system.cpu.commit.committedInstType_0::SimdShaSigma2            0      0.00%     65.32% # Class of committed instruction
system.cpu.commit.committedInstType_0::SimdShaSigma3            0      0.00%     65.32% # Class of committed instruction
system.cpu.commit.committedInstType_0::SimdPredAlu            0      0.00%     65.32% # Class of committed instruction
system.cpu.commit.committedInstType_0::MemRead      5932802     17.08%     82.39% # Class of committed instruction
system.cpu.commit.committedInstType_0::MemWrite      3043588      8.76%     91.15% # Class of committed instruction
system.cpu.commit.committedInstType_0::FloatMemRead      2038100      5.87%     97.02% # Class of committed instruction
system.cpu.commit.committedInstType_0::FloatMemWrite      1035082      2.98%    100.00% # Class of committed instruction
system.cpu.commit.committedInstType_0::IprAccess            0      0.00%    100.00% # Class of committed instruction
system.cpu.commit.committedInstType_0::InstPrefetch            0      0.00%    100.00% # Class of committed instruction
system.cpu.commit.committedInstType_0::total     34743763                       # Class of committed instruction
system.cpu.commit.commitEligibleSamples       2950647                       # number cycles where commit BW limit reached
system.cpu.dcache.demand_hits::.cpu.data      7863562                       # number of demand (read+write) hits
system.cpu.dcache.demand_hits::total          7863562                       # number of demand (read+write) hits
system.cpu.dcache.overall_hits::.cpu.data      7863562                       # number of overall hits
system.cpu.dcache.overall_hits::total         7863562                       # number of overall hits
system.cpu.dcache.demand_misses::.cpu.data        28352                       # number of demand (read+write) misses
system.cpu.dcache.demand_misses::total          28352                       # number of demand (read+write) misses
system.cpu.dcache.overall_misses::.cpu.data        28352                       # number of overall misses
system.cpu.dcache.overall_misses::total         28352                       # number of overall misses
system.cpu.dcache.demand_miss_latency::.cpu.data   1138654500                       # number of demand (read+write) miss cycles
system.cpu.dcache.demand_miss_latency::total   1138654500                       # number of demand (read+write) miss cycles
system.cpu.dcache.overall_miss_latency::.cpu.data   1138654500                       # number of overall miss cycles
system.cpu.dcache.overall_miss_latency::total   1138654500                       # number of overall miss cycles
system.cpu.dcache.demand_accesses::.cpu.data      7891914                       # number of demand (read+write) accesses
system.cpu.dcache.demand_accesses::total      7891914                       # number of demand (read+write) accesses
system.cpu.dcache.overall_accesses::.cpu.data      7891914                       # number of overall (read+write) accesses
system.cpu.dcache.overall_accesses::total      7891914                       # number of overall (read+write) accesses
system.cpu.dcache.demand_miss_rate::.cpu.data     0.003593                       # miss rate for demand accesses
system.cpu.dcache.demand_miss_rate::total     0.003593                       # miss rate for demand accesses
system.cpu.dcache.overall_miss_rate::.cpu.data     0.003593                       # miss rate for overall accesses
system.cpu.dcache.overall_miss_rate::total     0.003593                       # miss rate for overall accesses
system.cpu.dcache.demand_avg_miss_latency::.cpu.data 40161.346642                       # average overall miss latency
system.cpu.dcache.demand_avg_miss_latency::total 40161.346642                       # average overall miss latency
system.cpu.dcache.overall_avg_miss_latency::.cpu.data 40161.346642                       # average overall miss latency
system.cpu.dcache.overall_avg_miss_latency::total 40161.346642                       # average overall miss latency
system.cpu.dcache.blocked_cycles::no_mshrs        11874                       # number of cycles access was blocked
system.cpu.dcache.blocked_cycles::no_targets            7                       # number of cycles access was blocked
system.cpu.dcache.blocked::no_mshrs               235                       # number of cycles access was blocked
system.cpu.dcache.blocked::no_targets               1                       # number of cycles access was blocked
system.cpu.dcache.avg_blocked_cycles::no_mshrs    50.527660                       # average number of cycles each access was blocked
system.cpu.dcache.avg_blocked_cycles::no_targets            7                       # average number of cycles each access was blocked
system.cpu.dcache.writebacks::.writebacks         6774                       # number of writebacks
system.cpu.dcache.writebacks::total              6774                       # number of writebacks
system.cpu.dcache.demand_mshr_hits::.cpu.data        17862                       # number of demand (read+write) MSHR hits
system.cpu.dcache.demand_mshr_hits::total        17862                       # number of demand (read+write) MSHR hits
system.cpu.dcache.overall_mshr_hits::.cpu.data        17862                       # number of overall MSHR hits
system.cpu.dcache.overall_mshr_hits::total        17862                       # number of overall MSHR hits
system.cpu.dcache.demand_mshr_misses::.cpu.data        10490                       # number of demand (read+write) MSHR misses
system.cpu.dcache.demand_mshr_misses::total        10490                       # number of demand (read+write) MSHR misses
system.cpu.dcache.overall_mshr_misses::.cpu.data        10490                       # number of overall MSHR misses
system.cpu.dcache.overall_mshr_misses::total        10490                       # number of overall MSHR misses
system.cpu.dcache.demand_mshr_miss_latency::.cpu.data    468255000                       # number of demand (read+write) MSHR miss cycles
system.cpu.dcache.demand_mshr_miss_latency::total    468255000                       # number of demand (read+write) MSHR miss cycles
system.cpu.dcache.overall_mshr_miss_latency::.cpu.data    468255000                       # number of overall MSHR miss cycles
system.cpu.dcache.overall_mshr_miss_latency::total    468255000                       # number of overall MSHR miss cycles
system.cpu.dcache.demand_mshr_miss_rate::.cpu.data     0.001329                       # mshr miss rate for demand accesses
system.cpu.dcache.demand_mshr_miss_rate::total     0.001329                       # mshr miss rate for demand accesses
system.cpu.dcache.overall_mshr_miss_rate::.cpu.data     0.001329                       # mshr miss rate for overall accesses
system.cpu.dcache.overall_mshr_miss_rate::total     0.001329                       # mshr miss rate for overall accesses
system.cpu.dcache.demand_avg_mshr_miss_latency::.cpu.data 44638.226883                       # average overall mshr miss latency
system.cpu.dcache.demand_avg_mshr_miss_latency::total 44638.226883                       # average overall mshr miss latency
system.cpu.dcache.overall_avg_mshr_miss_latency::.cpu.data 44638.226883                       # average overall mshr miss latency
system.cpu.dcache.overall_avg_mshr_miss_latency::total 44638.226883                       # average overall mshr miss latency
system.cpu.dcache.replacements                   9465                       # number of replacements
system.cpu.dcache.ReadReq_hits::.cpu.data      3788586                       # number of ReadReq hits
system.cpu.dcache.ReadReq_hits::total         3788586                       # number of ReadReq hits
system.cpu.dcache.ReadReq_misses::.cpu.data        24658                       # number of ReadReq misses
system.cpu.dcache.ReadReq_misses::total         24658                       # number of ReadReq misses
system.cpu.dcache.ReadReq_miss_latency::.cpu.data    877450000                       # number of ReadReq miss cycles
system.cpu.dcache.ReadReq_miss_latency::total    877450000                       # number of ReadReq miss cycles
system.cpu.dcache.ReadReq_accesses::.cpu.data      3813244                       # number of ReadReq accesses(hits+misses)
system.cpu.dcache.ReadReq_accesses::total      3813244                       # number of ReadReq accesses(hits+misses)
system.cpu.dcache.ReadReq_miss_rate::.cpu.data     0.006466                       # miss rate for ReadReq accesses
system.cpu.dcache.ReadReq_miss_rate::total     0.006466                       # miss rate for ReadReq accesses
system.cpu.dcache.ReadReq_avg_miss_latency::.cpu.data 35584.800065                       # average ReadReq miss latency
system.cpu.dcache.ReadReq_avg_miss_latency::total 35584.800065                       # average ReadReq miss latency
system.cpu.dcache.ReadReq_mshr_hits::.cpu.data        17815                       # number of ReadReq MSHR hits
system.cpu.dcache.ReadReq_mshr_hits::total        17815                       # number of ReadReq MSHR hits
system.cpu.dcache.ReadReq_mshr_misses::.cpu.data         6843                       # number of ReadReq MSHR misses
system.cpu.dcache.ReadReq_mshr_misses::total         6843                       # number of ReadReq MSHR misses
system.cpu.dcache.ReadReq_mshr_miss_latency::.cpu.data    214555000                       # number of ReadReq MSHR miss cycles
system.cpu.dcache.ReadReq_mshr_miss_latency::total    214555000                       # number of ReadReq MSHR miss cycles
system.cpu.dcache.ReadReq_mshr_miss_rate::.cpu.data     0.001795                       # mshr miss rate for ReadReq accesses
system.cpu.dcache.ReadReq_mshr_miss_rate::total     0.001795                       # mshr miss rate for ReadReq accesses
system.cpu.dcache.ReadReq_avg_mshr_miss_latency::.cpu.data 31353.938331                       # average ReadReq mshr miss latency
system.cpu.dcache.ReadReq_avg_mshr_miss_latency::total 31353.938331                       # average ReadReq mshr miss latency
system.cpu.dcache.WriteReq_hits::.cpu.data      4074976                       # number of WriteReq hits
system.cpu.dcache.WriteReq_hits::total        4074976                       # number of WriteReq hits
system.cpu.dcache.WriteReq_misses::.cpu.data         3694                       # number of WriteReq misses
system.cpu.dcache.WriteReq_misses::total         3694                       # number of WriteReq misses
system.cpu.dcache.WriteReq_miss_latency::.cpu.data    261204500                       # number of WriteReq miss cycles
system.cpu.dcache.WriteReq_miss_latency::total    261204500                       # number of WriteReq miss cycles
system.cpu.dcache.WriteReq_accesses::.cpu.data      4078670                       # number of WriteReq accesses(hits+misses)
system.cpu.dcache.WriteReq_accesses::total      4078670                       # number of WriteReq accesses(hits+misses)
system.cpu.dcache.WriteReq_miss_rate::.cpu.data     0.000906                       # miss rate for WriteReq accesses
system.cpu.dcache.WriteReq_miss_rate::total     0.000906                       # miss rate for WriteReq accesses
system.cpu.dcache.WriteReq_avg_miss_latency::.cpu.data 70710.476448                       # average WriteReq miss latency
system.cpu.dcache.WriteReq_avg_miss_latency::total 70710.476448                       # average WriteReq miss latency
system.cpu.dcache.WriteReq_mshr_hits::.cpu.data           47                       # number of WriteReq MSHR hits
system.cpu.dcache.WriteReq_mshr_hits::total           47                       # number of WriteReq MSHR hits
system.cpu.dcache.WriteReq_mshr_misses::.cpu.data         3647                       # number of WriteReq MSHR misses
system.cpu.dcache.WriteReq_mshr_misses::total         3647                       # number of WriteReq MSHR misses
system.cpu.dcache.WriteReq_mshr_miss_latency::.cpu.data    253700000                       # number of WriteReq MSHR miss cycles
system.cpu.dcache.WriteReq_mshr_miss_latency::total    253700000                       # number of WriteReq MSHR miss cycles
system.cpu.dcache.WriteReq_mshr_miss_rate::.cpu.data     0.000894                       # mshr miss rate for WriteReq accesses
system.cpu.dcache.WriteReq_mshr_miss_rate::total     0.000894                       # mshr miss rate for WriteReq accesses
system.cpu.dcache.WriteReq_avg_mshr_miss_latency::.cpu.data 69564.025226                       # average WriteReq mshr miss latency
system.cpu.dcache.WriteReq_avg_mshr_miss_latency::total 69564.025226                       # average WriteReq mshr miss latency
system.cpu.dcache.power_state.pwrStateResidencyTicks::UNDEFINED   5193945000                       # Cumulative time (in ticks) in various power states
system.cpu.dcache.tags.tagsinuse          1010.965828                       # Cycle average of tags in use
system.cpu.dcache.tags.total_refs             7874052                       # Total number of references to valid blocks.
system.cpu.dcache.tags.sampled_refs             10489                       # Sample count of references to valid blocks.
system.cpu.dcache.tags.avg_refs            750.696158                       # Average number of references to valid blocks.
system.cpu.dcache.tags.warmup_cycle            168000                       # Cycle when the warmup percentage was hit.
system.cpu.dcache.tags.occ_blocks::.cpu.data  1010.965828                       # Average occupied blocks per requestor
system.cpu.dcache.tags.occ_percent::.cpu.data     0.987271                       # Average percentage of cache occupancy
system.cpu.dcache.tags.occ_percent::total     0.987271                       # Average percentage of cache occupancy
system.cpu.dcache.tags.occ_task_id_blocks::1024         1024                       # Occupied blocks per task id
system.cpu.dcache.tags.age_task_id_blocks_1024::0           60                       # Occupied blocks per task id
system.cpu.dcache.tags.age_task_id_blocks_1024::1           13                       # Occupied blocks per task id
system.cpu.dcache.tags.age_task_id_blocks_1024::2          951                       # Occupied blocks per task id
system.cpu.dcache.tags.occ_task_id_percent::1024            1                       # Percentage of cache occupancy per task id
system.cpu.dcache.tags.tag_accesses          15794317                       # Number of tag accesses
system.cpu.dcache.tags.data_accesses         15794317                       # Number of data accesses
system.cpu.dcache.tags.power_state.pwrStateResidencyTicks::UNDEFINED   5193945000                       # Cumulative time (in ticks) in various power states
system.cpu.decode.idleCycles                  2111024                       # Number of cycles decode is idle
system.cpu.decode.blockedCycles               2607267                       # Number of cycles decode is blocked
system.cpu.decode.runCycles                   4993551                       # Number of cycles decode is running
system.cpu.decode.unblockCycles                560694                       # Number of cycles decode is unblocking
system.cpu.decode.squashCycles                  18128                       # Number of cycles decode is squashing
system.cpu.decode.branchResolved              1372642                       # Number of times decode resolved a  branch
system.cpu.decode.branchMispred                  4657                       # Number of times decode detected a branch misprediction
system.cpu.decode.decodedInsts               35648209                       # Number of instructions handled by decode
system.cpu.decode.squashedInsts                 33177                       # Number of squashed instructions handled by decode
system.cpu.dtb.rdAccesses                     8053219                       # TLB accesses on read requests
system.cpu.dtb.wrAccesses                     4093859                       # TLB accesses on write requests
system.cpu.dtb.rdMisses                           648                       # TLB misses on read requests
system.cpu.dtb.wrMisses                           388                       # TLB misses on write requests
system.cpu.dtb.walker.power_state.pwrStateResidencyTicks::UNDEFINED   5193945000                       # Cumulative time (in ticks) in various power states
system.cpu.dtb_walker_cache.blocked_cycles::no_mshrs            0                       # number of cycles access was blocked
system.cpu.dtb_walker_cache.blocked_cycles::no_targets            0                       # number of cycles access was blocked
system.cpu.dtb_walker_cache.blocked::no_mshrs            0                       # number of cycles access was blocked
system.cpu.dtb_walker_cache.blocked::no_targets            0                       # number of cycles access was blocked
system.cpu.dtb_walker_cache.avg_blocked_cycles::no_mshrs          nan                       # average number of cycles each access was blocked
system.cpu.dtb_walker_cache.avg_blocked_cycles::no_targets          nan                       # average number of cycles each access was blocked
system.cpu.dtb_walker_cache.replacements            0                       # number of replacements
system.cpu.dtb_walker_cache.power_state.pwrStateResidencyTicks::UNDEFINED   5193945000                       # Cumulative time (in ticks) in various power states
system.cpu.dtb_walker_cache.tags.tagsinuse            0                       # Cycle average of tags in use
system.cpu.dtb_walker_cache.tags.total_refs            0                       # Total number of references to valid blocks.
system.cpu.dtb_walker_cache.tags.sampled_refs            0                       # Sample count of references to valid blocks.
system.cpu.dtb_walker_cache.tags.avg_refs          nan                       # Average number of references to valid blocks.
system.cpu.dtb_walker_cache.tags.warmup_cycle            0                       # Cycle when the warmup percentage was hit.
system.cpu.dtb_walker_cache.tags.tag_accesses            0                       # Number of tag accesses
system.cpu.dtb_walker_cache.tags.data_accesses            0                       # Number of data accesses
system.cpu.dtb_walker_cache.tags.power_state.pwrStateResidencyTicks::UNDEFINED   5193945000                       # Cumulative time (in ticks) in various power states
system.cpu.fetch.icacheStallCycles            3153893                       # Number of cycles fetch is stalled on an Icache miss
system.cpu.fetch.insts                       20001765                       # Number of instructions fetch has processed
system.cpu.fetch.branches                     3408222                       # Number of branches that fetch encountered
system.cpu.fetch.predictedBranches            2483380                       # Number of branches that fetch has predicted taken
system.cpu.fetch.cycles                       7105094                       # Number of cycles fetch has run and was not squashing or blocked
system.cpu.fetch.squashCycles                   45536                       # Number of cycles fetch has spent squashing
system.cpu.fetch.miscStallCycles                 1307                       # Number of cycles fetch has spent waiting on interrupts,or bad addresses, or out of MSHRs
system.cpu.fetch.pendingTrapStallCycles          7590                       # Number of stall cycles due to pending traps
system.cpu.fetch.pendingQuiesceStallCycles           11                       # Number of stall cycles due to pending quiesce instructions
system.cpu.fetch.icacheWaitRetryStallCycles            1                       # Number of stall cycles due to full MSHR
system.cpu.fetch.cacheLines                   3101750                       # Number of cache lines fetched
system.cpu.fetch.icacheSquashes                  5464                       # Number of outstanding Icache misses that were squashed
system.cpu.fetch.nisnDist::samples           10290664                       # Number of instructions fetched each cycle (Total)
system.cpu.fetch.nisnDist::mean              3.489041                       # Number of instructions fetched each cycle (Total)
system.cpu.fetch.nisnDist::stdev             3.412954                       # Number of instructions fetched each cycle (Total)
system.cpu.fetch.nisnDist::underflows               0      0.00%      0.00% # Number of instructions fetched each cycle (Total)
system.cpu.fetch.nisnDist::0                  3920964     38.10%     38.10% # Number of instructions fetched each cycle (Total)
system.cpu.fetch.nisnDist::1                   853060      8.29%     46.39% # Number of instructions fetched each cycle (Total)
system.cpu.fetch.nisnDist::2                   327921      3.19%     49.58% # Number of instructions fetched each cycle (Total)
system.cpu.fetch.nisnDist::3                   585538      5.69%     55.27% # Number of instructions fetched each cycle (Total)
system.cpu.fetch.nisnDist::4                   101514      0.99%     56.25% # Number of instructions fetched each cycle (Total)
system.cpu.fetch.nisnDist::5                   578345      5.62%     61.87% # Number of instructions fetched each cycle (Total)
system.cpu.fetch.nisnDist::6                   605288      5.88%     67.76% # Number of instructions fetched each cycle (Total)
system.cpu.fetch.nisnDist::7                   834751      8.11%     75.87% # Number of instructions fetched each cycle (Total)
system.cpu.fetch.nisnDist::8                  2483283     24.13%    100.00% # Number of instructions fetched each cycle (Total)
system.cpu.fetch.nisnDist::overflows                0      0.00%    100.00% # Number of instructions fetched each cycle (Total)
system.cpu.fetch.nisnDist::min_value                0                       # Number of instructions fetched each cycle (Total)
system.cpu.fetch.nisnDist::max_value                8                       # Number of instructions fetched each cycle (Total)
system.cpu.fetch.nisnDist::total             10290664                       # Number of instructions fetched each cycle (Total)
system.cpu.fetch.branchRate                  0.328096                       # Number of branch fetches per cycle
system.cpu.fetch.rate                        1.925489                       # Number of inst fetches per cycle
system.cpu.icache.demand_hits::.cpu.inst      3099896                       # number of demand (read+write) hits
system.cpu.icache.demand_hits::total          3099896                       # number of demand (read+write) hits
system.cpu.icache.overall_hits::.cpu.inst      3099896                       # number of overall hits
system.cpu.icache.overall_hits::total         3099896                       # number of overall hits
system.cpu.icache.demand_misses::.cpu.inst         1853                       # number of demand (read+write) misses
system.cpu.icache.demand_misses::total           1853                       # number of demand (read+write) misses
system.cpu.icache.overall_misses::.cpu.inst         1853                       # number of overall misses
system.cpu.icache.overall_misses::total          1853                       # number of overall misses
system.cpu.icache.demand_miss_latency::.cpu.inst    124658500                       # number of demand (read+write) miss cycles
system.cpu.icache.demand_miss_latency::total    124658500                       # number of demand (read+write) miss cycles
system.cpu.icache.overall_miss_latency::.cpu.inst    124658500                       # number of overall miss cycles
system.cpu.icache.overall_miss_latency::total    124658500                       # number of overall miss cycles
system.cpu.icache.demand_accesses::.cpu.inst      3101749                       # number of demand (read+write) accesses
system.cpu.icache.demand_accesses::total      3101749                       # number of demand (read+write) accesses
system.cpu.icache.overall_accesses::.cpu.inst      3101749                       # number of overall (read+write) accesses
system.cpu.icache.overall_accesses::total      3101749                       # number of overall (read+write) accesses
system.cpu.icache.demand_miss_rate::.cpu.inst     0.000597                       # miss rate for demand accesses
system.cpu.icache.demand_miss_rate::total     0.000597                       # miss rate for demand accesses
system.cpu.icache.overall_miss_rate::.cpu.inst     0.000597                       # miss rate for overall accesses
system.cpu.icache.overall_miss_rate::total     0.000597                       # miss rate for overall accesses
system.cpu.icache.demand_avg_miss_latency::.cpu.inst 67273.880194                       # average overall miss latency
system.cpu.icache.demand_avg_miss_latency::total 67273.880194                       # average overall miss latency
system.cpu.icache.overall_avg_miss_latency::.cpu.inst 67273.880194                       # average overall miss latency
system.cpu.icache.overall_avg_miss_latency::total 67273.880194                       # average overall miss latency
system.cpu.icache.blocked_cycles::no_mshrs          355                       # number of cycles access was blocked
system.cpu.icache.blocked_cycles::no_targets            0                       # number of cycles access was blocked
system.cpu.icache.blocked::no_mshrs                 6                       # number of cycles access was blocked
system.cpu.icache.blocked::no_targets               0                       # number of cycles access was blocked
system.cpu.icache.avg_blocked_cycles::no_mshrs    59.166667                       # average number of cycles each access was blocked
system.cpu.icache.avg_blocked_cycles::no_targets          nan                       # average number of cycles each access was blocked
system.cpu.icache.writebacks::.writebacks          506                       # number of writebacks
system.cpu.icache.writebacks::total               506                       # number of writebacks
system.cpu.icache.demand_mshr_hits::.cpu.inst          465                       # number of demand (read+write) MSHR hits
system.cpu.icache.demand_mshr_hits::total          465                       # number of demand (read+write) MSHR hits
system.cpu.icache.overall_mshr_hits::.cpu.inst          465                       # number of overall MSHR hits
system.cpu.icache.overall_mshr_hits::total          465                       # number of overall MSHR hits
system.cpu.icache.demand_mshr_misses::.cpu.inst         1388                       # number of demand (read+write) MSHR misses
system.cpu.icache.demand_mshr_misses::total         1388                       # number of demand (read+write) MSHR misses
system.cpu.icache.overall_mshr_misses::.cpu.inst         1388                       # number of overall MSHR misses
system.cpu.icache.overall_mshr_misses::total         1388                       # number of overall MSHR misses
system.cpu.icache.demand_mshr_miss_latency::.cpu.inst     97252000                       # number of demand (read+write) MSHR miss cycles
system.cpu.icache.demand_mshr_miss_latency::total     97252000                       # number of demand (read+write) MSHR miss cycles
system.cpu.icache.overall_mshr_miss_latency::.cpu.inst     97252000                       # number of overall MSHR miss cycles
system.cpu.icache.overall_mshr_miss_latency::total     97252000                       # number of overall MSHR miss cycles
system.cpu.icache.demand_mshr_miss_rate::.cpu.inst     0.000447                       # mshr miss rate for demand accesses
system.cpu.icache.demand_mshr_miss_rate::total     0.000447                       # mshr miss rate for demand accesses
system.cpu.icache.overall_mshr_miss_rate::.cpu.inst     0.000447                       # mshr miss rate for overall accesses
system.cpu.icache.overall_mshr_miss_rate::total     0.000447                       # mshr miss rate for overall accesses
system.cpu.icache.demand_avg_mshr_miss_latency::.cpu.inst 70066.282421                       # average overall mshr miss latency
system.cpu.icache.demand_avg_mshr_miss_latency::total 70066.282421                       # average overall mshr miss latency
system.cpu.icache.overall_avg_mshr_miss_latency::.cpu.inst 70066.282421                       # average overall mshr miss latency
system.cpu.icache.overall_avg_mshr_miss_latency::total 70066.282421                       # average overall mshr miss latency
system.cpu.icache.replacements                    506                       # number of replacements
system.cpu.icache.ReadReq_hits::.cpu.inst      3099896                       # number of ReadReq hits
system.cpu.icache.ReadReq_hits::total         3099896                       # number of ReadReq hits
system.cpu.icache.ReadReq_misses::.cpu.inst         1853                       # number of ReadReq misses
system.cpu.icache.ReadReq_misses::total          1853                       # number of ReadReq misses
system.cpu.icache.ReadReq_miss_latency::.cpu.inst    124658500                       # number of ReadReq miss cycles
system.cpu.icache.ReadReq_miss_latency::total    124658500                       # number of ReadReq miss cycles
system.cpu.icache.ReadReq_accesses::.cpu.inst      3101749                       # number of ReadReq accesses(hits+misses)
system.cpu.icache.ReadReq_accesses::total      3101749                       # number of ReadReq accesses(hits+misses)
system.cpu.icache.ReadReq_miss_rate::.cpu.inst     0.000597                       # miss rate for ReadReq accesses
system.cpu.icache.ReadReq_miss_rate::total     0.000597                       # miss rate for ReadReq accesses
system.cpu.icache.ReadReq_avg_miss_latency::.cpu.inst 67273.880194                       # average ReadReq miss latency
system.cpu.icache.ReadReq_avg_miss_latency::total 67273.880194                       # average ReadReq miss latency
system.cpu.icache.ReadReq_mshr_hits::.cpu.inst          465                       # number of ReadReq MSHR hits
system.cpu.icache.ReadReq_mshr_hits::total          465                       # number of ReadReq MSHR hits
system.cpu.icache.ReadReq_mshr_misses::.cpu.inst         1388                       # number of ReadReq MSHR misses
system.cpu.icache.ReadReq_mshr_misses::total         1388                       # number of ReadReq MSHR misses
system.cpu.icache.ReadReq_mshr_miss_latency::.cpu.inst     97252000                       # number of ReadReq MSHR miss cycles
system.cpu.icache.ReadReq_mshr_miss_latency::total     97252000                       # number of ReadReq MSHR miss cycles
system.cpu.icache.ReadReq_mshr_miss_rate::.cpu.inst     0.000447                       # mshr miss rate for ReadReq accesses
system.cpu.icache.ReadReq_mshr_miss_rate::total     0.000447                       # mshr miss rate for ReadReq accesses
system.cpu.icache.ReadReq_avg_mshr_miss_latency::.cpu.inst 70066.282421                       # average ReadReq mshr miss latency
system.cpu.icache.ReadReq_avg_mshr_miss_latency::total 70066.282421                       # average ReadReq mshr miss latency
system.cpu.icache.power_state.pwrStateResidencyTicks::UNDEFINED   5193945000                       # Cumulative time (in ticks) in various power states
system.cpu.icache.tags.tagsinuse           747.710478                       # Cycle average of tags in use
system.cpu.icache.tags.total_refs             3101283                       # Total number of references to valid blocks.
system.cpu.icache.tags.sampled_refs              1387                       # Sample count of references to valid blocks.
system.cpu.icache.tags.avg_refs           2235.964672                       # Average number of references to valid blocks.
system.cpu.icache.tags.warmup_cycle             82000                       # Cycle when the warmup percentage was hit.
system.cpu.icache.tags.occ_blocks::.cpu.inst   747.710478                       # Average occupied blocks per requestor
system.cpu.icache.tags.occ_percent::.cpu.inst     0.730186                       # Average percentage of cache occupancy
system.cpu.icache.tags.occ_percent::total     0.730186                       # Average percentage of cache occupancy
system.cpu.icache.tags.occ_task_id_blocks::1024          880                       # Occupied blocks per task id
system.cpu.icache.tags.age_task_id_blocks_1024::0           90                       # Occupied blocks per task id
system.cpu.icache.tags.age_task_id_blocks_1024::2          317                       # Occupied blocks per task id
system.cpu.icache.tags.age_task_id_blocks_1024::3          473                       # Occupied blocks per task id
system.cpu.icache.tags.occ_task_id_percent::1024     0.859375                       # Percentage of cache occupancy per task id
system.cpu.icache.tags.tag_accesses           6204885                       # Number of tag accesses
system.cpu.icache.tags.data_accesses          6204885                       # Number of data accesses
system.cpu.icache.tags.power_state.pwrStateResidencyTicks::UNDEFINED   5193945000                       # Cumulative time (in ticks) in various power states
system.cpu.interrupts.clk_domain.clock           8000                       # Clock period in ticks
system.cpu.itb.rdAccesses                           0                       # TLB accesses on read requests
system.cpu.itb.wrAccesses                     3102971                       # TLB accesses on write requests
system.cpu.itb.rdMisses                             0                       # TLB misses on read requests
system.cpu.itb.wrMisses                          1360                       # TLB misses on write requests
system.cpu.itb.walker.power_state.pwrStateResidencyTicks::UNDEFINED   5193945000                       # Cumulative time (in ticks) in various power states
system.cpu.itb_walker_cache.blocked_cycles::no_mshrs            0                       # number of cycles access was blocked
system.cpu.itb_walker_cache.blocked_cycles::no_targets            0                       # number of cycles access was blocked
system.cpu.itb_walker_cache.blocked::no_mshrs            0                       # number of cycles access was blocked
system.cpu.itb_walker_cache.blocked::no_targets            0                       # number of cycles access was blocked
system.cpu.itb_walker_cache.avg_blocked_cycles::no_mshrs          nan                       # average number of cycles each access was blocked
system.cpu.itb_walker_cache.avg_blocked_cycles::no_targets          nan                       # average number of cycles each access was blocked
system.cpu.itb_walker_cache.replacements            0                       # number of replacements
system.cpu.itb_walker_cache.power_state.pwrStateResidencyTicks::UNDEFINED   5193945000                       # Cumulative time (in ticks) in various power states
system.cpu.itb_walker_cache.tags.tagsinuse            0                       # Cycle average of tags in use
system.cpu.itb_walker_cache.tags.total_refs            0                       # Total number of references to valid blocks.
system.cpu.itb_walker_cache.tags.sampled_refs            0                       # Sample count of references to valid blocks.
system.cpu.itb_walker_cache.tags.avg_refs          nan                       # Average number of references to valid blocks.
system.cpu.itb_walker_cache.tags.warmup_cycle            0                       # Cycle when the warmup percentage was hit.
system.cpu.itb_walker_cache.tags.tag_accesses            0                       # Number of tag accesses
system.cpu.itb_walker_cache.tags.data_accesses            0                       # Number of data accesses
system.cpu.itb_walker_cache.tags.power_state.pwrStateResidencyTicks::UNDEFINED   5193945000                       # Cumulative time (in ticks) in various power states
system.cpu.lsq0.forwLoads                     4223526                       # Number of loads that had data forwarded from stores
system.cpu.lsq0.squashedLoads                  108639                       # Number of loads squashed
system.cpu.lsq0.ignoredResponses                   60                       # Number of memory responses ignored because the instruction is squashed
system.cpu.lsq0.memOrderViolation                 507                       # Number of memory ordering violations
system.cpu.lsq0.squashedStores                  35561                       # Number of stores squashed
system.cpu.lsq0.rescheduledLoads                 7968                       # Number of loads that were rescheduled
system.cpu.lsq0.blockedByCache                    190                       # Number of times an access to memory failed due to the cache being blocked
system.cpu.power_state.pwrStateResidencyTicks::ON   5193945000                       # Cumulative time (in ticks) in various power states
system.cpu.rename.squashCycles                  18128                       # Number of cycles rename is squashing
system.cpu.rename.idleCycles                  2396554                       # Number of cycles rename is idle
system.cpu.rename.blockCycles                  349253                       # Number of cycles rename is blocking
system.cpu.rename.serializeStallCycles           2259                       # count of cycles rename stalledfor serializing inst
system.cpu.rename.runCycles                   5266516                       # Number of cycles rename is running
system.cpu.rename.unblockCycles               2257954                       # Number of cycles rename is unblocking
system.cpu.rename.renamedInsts               35555660                       # Number of instructions processed by rename
system.cpu.rename.ROBFullEvents                  2313                       # Number of times rename has blocked due to ROB full
system.cpu.rename.IQFullEvents                  37879                       # Number of times rename has blocked due to IQ full
system.cpu.rename.LQFullEvents                   6642                       # Number of times rename has blocked due to LQ full
system.cpu.rename.SQFullEvents                2204260                       # Number of times rename has blocked due to SQ full
system.cpu.rename.renamedOperands            34101862                       # Number of destination operands rename has renamed
system.cpu.rename.lookups                    87605130                       # Number of register rename lookups that rename has made
system.cpu.rename.intLookups                 56288432                       # Number of integer rename lookups
system.cpu.rename.fpLookups                   2202593                       # Number of floating rename lookups
system.cpu.rename.committedMaps              33148068                       # Number of HB maps that are committed
system.cpu.rename.undoneMaps                   953788                       # Number of HB maps that are undone due to squashing
system.cpu.rename.serializing                      58                       # count of serializing insts renamed
system.cpu.rename.tempSerializing                  46                       # count of temporary serializing insts renamed
system.cpu.rename.skidInsts                   3054002                       # count of insts added to the skid buffer
system.cpu.rob.reads                         42625910                       # The number of ROB reads
system.cpu.rob.writes                        70879302                       # The number of ROB writes
system.cpu.thread_0.numInsts                 19365005                       # Number of Instructions committed
system.cpu.thread_0.numOps                   34743763                       # Number of Ops committed
system.cpu.thread_0.numMemRefs                      0                       # Number of Memory References
system.cpu_clk_domain.clock                       500                       # Clock period in ticks
system.cpu_voltage_domain.voltage                   1                       # Voltage in Volts
system.l2.demand_hits::.cpu.inst                   48                       # number of demand (read+write) hits
system.l2.demand_hits::.cpu.data                 4794                       # number of demand (read+write) hits
system.l2.demand_hits::total                     4842                       # number of demand (read+write) hits
system.l2.overall_hits::.cpu.inst                  48                       # number of overall hits
system.l2.overall_hits::.cpu.data                4794                       # number of overall hits
system.l2.overall_hits::total                    4842                       # number of overall hits
system.l2.demand_misses::.cpu.inst               1335                       # number of demand (read+write) misses
system.l2.demand_misses::.cpu.data               5695                       # number of demand (read+write) misses
system.l2.demand_misses::total                   7030                       # number of demand (read+write) misses
system.l2.overall_misses::.cpu.inst              1335                       # number of overall misses
system.l2.overall_misses::.cpu.data              5695                       # number of overall misses
system.l2.overall_misses::total                  7030                       # number of overall misses
system.l2.demand_miss_latency::.cpu.inst     94628500                       # number of demand (read+write) miss cycles
system.l2.demand_miss_latency::.cpu.data    401665500                       # number of demand (read+write) miss cycles
system.l2.demand_miss_latency::total        496294000                       # number of demand (read+write) miss cycles
system.l2.overall_miss_latency::.cpu.inst     94628500                       # number of overall miss cycles
system.l2.overall_miss_latency::.cpu.data    401665500                       # number of overall miss cycles
system.l2.overall_miss_latency::total       496294000                       # number of overall miss cycles
system.l2.demand_accesses::.cpu.inst             1383                       # number of demand (read+write) accesses
system.l2.demand_accesses::.cpu.data            10489                       # number of demand (read+write) accesses
system.l2.demand_accesses::total                11872                       # number of demand (read+write) accesses
system.l2.overall_accesses::.cpu.inst            1383                       # number of overall (read+write) accesses
system.l2.overall_accesses::.cpu.data           10489                       # number of overall (read+write) accesses
system.l2.overall_accesses::total               11872                       # number of overall (read+write) accesses
system.l2.demand_miss_rate::.cpu.inst        0.965293                       # miss rate for demand accesses
system.l2.demand_miss_rate::.cpu.data        0.542950                       # miss rate for demand accesses
system.l2.demand_miss_rate::total            0.592150                       # miss rate for demand accesses
system.l2.overall_miss_rate::.cpu.inst       0.965293                       # miss rate for overall accesses
system.l2.overall_miss_rate::.cpu.data       0.542950                       # miss rate for overall accesses
system.l2.overall_miss_rate::total           0.592150                       # miss rate for overall accesses
system.l2.demand_avg_miss_latency::.cpu.inst 70882.771536                       # average overall miss latency
system.l2.demand_avg_miss_latency::.cpu.data 70529.499561                       # average overall miss latency
system.l2.demand_avg_miss_latency::total 70596.586060                       # average overall miss latency
system.l2.overall_avg_miss_latency::.cpu.inst 70882.771536                       # average overall miss latency
system.l2.overall_avg_miss_latency::.cpu.data 70529.499561                       # average overall miss latency
system.l2.overall_avg_miss_latency::total 70596.586060                       # average overall miss latency
[...]
system.mem_ctrls.dram.readBursts                 7028                       # Number of DRAM read bursts
system.mem_ctrls.dram.writeBursts                  32                       # Number of DRAM write bursts
system.mem_ctrls.dram.perBankRdBursts::0          317                       # Per bank write bursts
system.mem_ctrls.dram.perBankRdBursts::1          468                       # Per bank write bursts
system.mem_ctrls.dram.perBankRdBursts::2          569                       # Per bank write bursts
system.mem_ctrls.dram.perBankRdBursts::3          581                       # Per bank write bursts
system.mem_ctrls.dram.perBankRdBursts::4          633                       # Per bank write bursts
system.mem_ctrls.dram.perBankRdBursts::5          515                       # Per bank write bursts
system.mem_ctrls.dram.perBankRdBursts::6          488                       # Per bank write bursts
system.mem_ctrls.dram.perBankRdBursts::7          494                       # Per bank write bursts
system.mem_ctrls.dram.perBankRdBursts::8          352                       # Per bank write bursts
system.mem_ctrls.dram.perBankRdBursts::9          383                       # Per bank write bursts
system.mem_ctrls.dram.perBankRdBursts::10          397                       # Per bank write bursts
system.mem_ctrls.dram.perBankRdBursts::11          454                       # Per bank write bursts
system.mem_ctrls.dram.perBankRdBursts::12          357                       # Per bank write bursts
system.mem_ctrls.dram.perBankRdBursts::13          346                       # Per bank write bursts
system.mem_ctrls.dram.perBankRdBursts::14          312                       # Per bank write bursts
system.mem_ctrls.dram.perBankRdBursts::15          362                       # Per bank write bursts
system.mem_ctrls.dram.perBankWrBursts::0            0                       # Per bank write bursts
system.mem_ctrls.dram.perBankWrBursts::1            0                       # Per bank write bursts
system.mem_ctrls.dram.perBankWrBursts::2            1                       # Per bank write bursts
system.mem_ctrls.dram.perBankWrBursts::3            0                       # Per bank write bursts
system.mem_ctrls.dram.perBankWrBursts::4            3                       # Per bank write bursts
system.mem_ctrls.dram.perBankWrBursts::5           18                       # Per bank write bursts
system.mem_ctrls.dram.perBankWrBursts::6            0                       # Per bank write bursts
system.mem_ctrls.dram.perBankWrBursts::7            0                       # Per bank write bursts
system.mem_ctrls.dram.perBankWrBursts::8            0                       # Per bank write bursts
system.mem_ctrls.dram.perBankWrBursts::9            0                       # Per bank write bursts
system.mem_ctrls.dram.perBankWrBursts::10            3                       # Per bank write bursts
system.mem_ctrls.dram.perBankWrBursts::11            5                       # Per bank write bursts
system.mem_ctrls.dram.perBankWrBursts::12            1                       # Per bank write bursts
system.mem_ctrls.dram.perBankWrBursts::13            1                       # Per bank write bursts
system.mem_ctrls.dram.perBankWrBursts::14            0                       # Per bank write bursts
system.mem_ctrls.dram.perBankWrBursts::15            0                       # Per bank write bursts
system.mem_ctrls.dram.totQLat                43206000                       # Total ticks spent queuing
system.mem_ctrls.dram.totBusLat              35140000                       # Total ticks spent in databus transfers
system.mem_ctrls.dram.totMemAccLat          174981000                       # Total ticks spent from burst creation until serviced by the DRAM
system.mem_ctrls.dram.avgQLat                 6147.69                       # Average queueing delay per DRAM burst
system.mem_ctrls.dram.avgBusLat               5000.00                       # Average bus latency per DRAM burst
system.mem_ctrls.dram.avgMemAccLat           24897.69                       # Average memory access latency per DRAM burst
system.mem_ctrls.dram.readRowHits                5876                       # Number of row buffer hits during reads
system.mem_ctrls.dram.writeRowHits                 24                       # Number of row buffer hits during writes
system.mem_ctrls.dram.readRowHitRate            83.61                       # Row buffer hit rate for reads
system.mem_ctrls.dram.writeRowHitRate           75.00                       # Row buffer hit rate for writes
system.mem_ctrls.dram.bytesPerActivate::samples         1158                       # Bytes accessed per row activation
system.mem_ctrls.dram.bytesPerActivate::mean   390.024180                       # Bytes accessed per row activation
system.mem_ctrls.dram.bytesPerActivate::gmean   278.170911                       # Bytes accessed per row activation
system.mem_ctrls.dram.bytesPerActivate::stdev   311.761127                       # Bytes accessed per row activation
system.mem_ctrls.dram.bytesPerActivate::0-127          163     14.08%     14.08% # Bytes accessed per row activation
system.mem_ctrls.dram.bytesPerActivate::128-255          372     32.12%     46.20% # Bytes accessed per row activation
system.mem_ctrls.dram.bytesPerActivate::256-383           98      8.46%     54.66% # Bytes accessed per row activation
system.mem_ctrls.dram.bytesPerActivate::384-511          205     17.70%     72.37% # Bytes accessed per row activation
system.mem_ctrls.dram.bytesPerActivate::512-639           81      6.99%     79.36% # Bytes accessed per row activation
system.mem_ctrls.dram.bytesPerActivate::640-767           33      2.85%     82.21% # Bytes accessed per row activation
system.mem_ctrls.dram.bytesPerActivate::768-895           37      3.20%     85.41% # Bytes accessed per row activation
system.mem_ctrls.dram.bytesPerActivate::896-1023           22      1.90%     87.31% # Bytes accessed per row activation
system.mem_ctrls.dram.bytesPerActivate::1024-1151          147     12.69%    100.00% # Bytes accessed per row activation
system.mem_ctrls.dram.bytesPerActivate::total         1158                       # Bytes accessed per row activation
system.mem_ctrls.dram.bytesRead                449792                       # Total number of bytes read from DRAM
system.mem_ctrls.dram.bytesWritten               2048                       # Total number of bytes written to DRAM
system.mem_ctrls.dram.avgRdBW               86.599300                       # Average DRAM read bandwidth in MiBytes/s
system.mem_ctrls.dram.avgWrBW                0.394305                       # Average DRAM write bandwidth in MiBytes/s
system.mem_ctrls.dram.peakBW                 12800.00                       # Theoretical peak bandwidth in MiByte/s
system.mem_ctrls.dram.busUtil                    0.68                       # Data bus utilization in percentage
system.mem_ctrls.dram.busUtilRead                0.68                       # Data bus utilization in percentage for reads
system.mem_ctrls.dram.busUtilWrite               0.00                       # Data bus utilization in percentage for writes
system.mem_ctrls.dram.pageHitRate               83.57                       # Row buffer hit rate, read and write combined
system.mem_ctrls.dram.power_state.pwrStateResidencyTicks::UNDEFINED   5193945000                       # Cumulative time (in ticks) in various power states
system.mem_ctrls.dram.rank0.actEnergy         4819500                       # Energy for activate commands per rank (pJ)
system.mem_ctrls.dram.rank0.preEnergy         2561625                       # Energy for precharge commands per rank (pJ)
system.mem_ctrls.dram.rank0.readEnergy       29024100                       # Energy for read commands per rank (pJ)
system.mem_ctrls.dram.rank0.writeEnergy        114840                       # Energy for write commands per rank (pJ)
system.mem_ctrls.dram.rank0.refreshEnergy 409964880.000000                       # Energy for refresh commands per rank (pJ)
system.mem_ctrls.dram.rank0.actBackEnergy    882844500                       # Energy for active background per rank (pJ)
system.mem_ctrls.dram.rank0.preBackEnergy   1251026880                       # Energy for precharge background per rank (pJ)
system.mem_ctrls.dram.rank0.actPowerDownEnergy            0                       # Energy for active power-down per rank (pJ)
system.mem_ctrls.dram.rank0.prePowerDownEnergy            0                       # Energy for precharge power-down per rank (pJ)
system.mem_ctrls.dram.rank0.selfRefreshEnergy            0                       # Energy for self refresh per rank (pJ)
system.mem_ctrls.dram.rank0.totalEnergy    2580356325                       # Total energy per rank (pJ)
system.mem_ctrls.dram.rank0.averagePower   496.800857                       # Core power per rank (mW)
system.mem_ctrls.dram.rank0.totalIdleTime            0                       # Total Idle time Per DRAM Rank
system.mem_ctrls.dram.rank0.pwrStateTime::IDLE   3243282500                       # Time in different power states
system.mem_ctrls.dram.rank0.pwrStateTime::REF    173420000                       # Time in different power states
system.mem_ctrls.dram.rank0.pwrStateTime::SREF            0                       # Time in different power states
system.mem_ctrls.dram.rank0.pwrStateTime::PRE_PDN            0                       # Time in different power states
system.mem_ctrls.dram.rank0.pwrStateTime::ACT   1777242500                       # Time in different power states
system.mem_ctrls.dram.rank0.pwrStateTime::ACT_PDN            0                       # Time in different power states
system.mem_ctrls.dram.rank1.actEnergy         3462900                       # Energy for activate commands per rank (pJ)
system.mem_ctrls.dram.rank1.preEnergy         1832985                       # Energy for precharge commands per rank (pJ)
system.mem_ctrls.dram.rank1.readEnergy       21155820                       # Energy for read commands per rank (pJ)
system.mem_ctrls.dram.rank1.writeEnergy         52200                       # Energy for write commands per rank (pJ)
system.mem_ctrls.dram.rank1.refreshEnergy 409964880.000000                       # Energy for refresh commands per rank (pJ)
system.mem_ctrls.dram.rank1.actBackEnergy    700211370                       # Energy for active background per rank (pJ)
system.mem_ctrls.dram.rank1.preBackEnergy   1404823200                       # Energy for precharge background per rank (pJ)
system.mem_ctrls.dram.rank1.actPowerDownEnergy            0                       # Energy for active power-down per rank (pJ)
system.mem_ctrls.dram.rank1.prePowerDownEnergy            0                       # Energy for precharge power-down per rank (pJ)
system.mem_ctrls.dram.rank1.selfRefreshEnergy            0                       # Energy for self refresh per rank (pJ)
system.mem_ctrls.dram.rank1.totalEnergy    2541503355                       # Total energy per rank (pJ)
system.mem_ctrls.dram.rank1.averagePower   489.320421                       # Core power per rank (mW)
system.mem_ctrls.dram.rank1.totalIdleTime            0                       # Total Idle time Per DRAM Rank
system.mem_ctrls.dram.rank1.pwrStateTime::IDLE   3645612750                       # Time in different power states
system.mem_ctrls.dram.rank1.pwrStateTime::REF    173420000                       # Time in different power states
system.mem_ctrls.dram.rank1.pwrStateTime::SREF            0                       # Time in different power states
system.mem_ctrls.dram.rank1.pwrStateTime::PRE_PDN            0                       # Time in different power states
system.mem_ctrls.dram.rank1.pwrStateTime::ACT   1374912250                       # Time in different power states
system.mem_ctrls.dram.rank1.pwrStateTime::ACT_PDN            0                       # Time in different power states
system.mem_ctrls.power_state.pwrStateResidencyTicks::UNDEFINED   5193945000                       # Cumulative time (in ticks) in various power states
system.membus.trans_dist::ReadResp               3469                       # Transaction distribution
system.membus.trans_dist::WritebackDirty           60                       # Transaction distribution
system.membus.trans_dist::CleanEvict              111                       # Transaction distribution
system.membus.trans_dist::ReadExReq              3560                       # Transaction distribution
system.membus.trans_dist::ReadExResp             3560                       # Transaction distribution
system.membus.trans_dist::ReadSharedReq          3469                       # Transaction distribution
system.membus.pkt_count_system.l2.mem_side_port::system.mem_ctrls.port        14229                       # Packet count per connected requestor and responder (bytes)
system.membus.pkt_count_system.l2.mem_side_port::total        14229                       # Packet count per connected requestor and responder (bytes)
system.membus.pkt_count::total                  14229                       # Packet count per connected requestor and responder (bytes)
system.membus.pkt_size_system.l2.mem_side_port::system.mem_ctrls.port       453696                       # Cumulative packet size per connected requestor and responder (bytes)
system.membus.pkt_size_system.l2.mem_side_port::total       453696                       # Cumulative packet size per connected requestor and responder (bytes)
system.membus.pkt_size::total                  453696                       # Cumulative packet size per connected requestor and responder (bytes)
system.membus.snoops                                0                       # Total snoops (count)
system.membus.snoopTraffic                          0                       # Total snoop traffic (bytes)
system.membus.snoop_fanout::samples              7029                       # Request fanout histogram
system.membus.snoop_fanout::mean                    0                       # Request fanout histogram
system.membus.snoop_fanout::stdev                   0                       # Request fanout histogram
system.membus.snoop_fanout::underflows              0      0.00%      0.00% # Request fanout histogram
system.membus.snoop_fanout::0                    7029    100.00%    100.00% # Request fanout histogram
system.membus.snoop_fanout::1                       0      0.00%    100.00% # Request fanout histogram
system.membus.snoop_fanout::overflows               0      0.00%    100.00% # Request fanout histogram
system.membus.snoop_fanout::min_value               0                       # Request fanout histogram
system.membus.snoop_fanout::max_value               0                       # Request fanout histogram
system.membus.snoop_fanout::total                7029                       # Request fanout histogram
system.membus.power_state.pwrStateResidencyTicks::UNDEFINED   5193945000                       # Cumulative time (in ticks) in various power states
system.membus.reqLayer0.occupancy             3720000                       # Layer occupancy (ticks)
system.membus.reqLayer0.utilization               0.1                       # Layer utilization (%)
system.membus.respLayer1.occupancy           19073000                       # Layer occupancy (ticks)
system.membus.respLayer1.utilization              0.4                       # Layer utilization (%)
system.tol2bus.trans_dist::ReadResp              8229                       # Transaction distribution
system.tol2bus.trans_dist::WritebackDirty         6834                       # Transaction distribution
system.tol2bus.trans_dist::WritebackClean          506                       # Transaction distribution
system.tol2bus.trans_dist::CleanEvict            2950                       # Transaction distribution
system.tol2bus.trans_dist::UpgradeReq               1                       # Transaction distribution
system.tol2bus.trans_dist::UpgradeResp              1                       # Transaction distribution
system.tol2bus.trans_dist::ReadExReq             3647                       # Transaction distribution
system.tol2bus.trans_dist::ReadExResp            3647                       # Transaction distribution
system.tol2bus.trans_dist::ReadCleanReq          1388                       # Transaction distribution
system.tol2bus.trans_dist::ReadSharedReq         6842                       # Transaction distribution
system.tol2bus.pkt_count_system.cpu.icache.mem_side_port::system.l2.cpu_side_port         3276                       # Packet count per connected requestor and responder (bytes)
system.tol2bus.pkt_count_system.cpu.dcache.mem_side_port::system.l2.cpu_side_port        30445                       # Packet count per connected requestor and responder (bytes)
system.tol2bus.pkt_count::total                 33721                       # Packet count per connected requestor and responder (bytes)
system.tol2bus.pkt_size_system.cpu.icache.mem_side_port::system.l2.cpu_side_port       120832                       # Cumulative packet size per connected requestor and responder (bytes)
system.tol2bus.pkt_size_system.cpu.dcache.mem_side_port::system.l2.cpu_side_port      1104832                       # Cumulative packet size per connected requestor and responder (bytes)
system.tol2bus.pkt_size::total                1225664                       # Cumulative packet size per connected requestor and responder (bytes)
system.tol2bus.snoops                             324                       # Total snoops (count)
system.tol2bus.snoopTraffic                      4160                       # Total snoop traffic (bytes)
system.tol2bus.snoop_fanout::samples            12197                       # Request fanout histogram
system.tol2bus.snoop_fanout::mean            0.013528                       # Request fanout histogram
system.tol2bus.snoop_fanout::stdev           0.115525                       # Request fanout histogram
system.tol2bus.snoop_fanout::underflows             0      0.00%      0.00% # Request fanout histogram
system.tol2bus.snoop_fanout::0                  12032     98.65%     98.65% # Request fanout histogram
system.tol2bus.snoop_fanout::1                    165      1.35%    100.00% # Request fanout histogram
system.tol2bus.snoop_fanout::2                      0      0.00%    100.00% # Request fanout histogram
system.tol2bus.snoop_fanout::3                      0      0.00%    100.00% # Request fanout histogram
system.tol2bus.snoop_fanout::4                      0      0.00%    100.00% # Request fanout histogram
system.tol2bus.snoop_fanout::overflows              0      0.00%    100.00% # Request fanout histogram
system.tol2bus.snoop_fanout::min_value              0                       # Request fanout histogram
system.tol2bus.snoop_fanout::max_value              1                       # Request fanout histogram
system.tol2bus.snoop_fanout::total              12197                       # Request fanout histogram
system.tol2bus.power_state.pwrStateResidencyTicks::UNDEFINED   5193945000                       # Cumulative time (in ticks) in various power states
system.tol2bus.reqLayer0.occupancy           18204500                       # Layer occupancy (ticks)
system.tol2bus.reqLayer0.utilization              0.4                       # Layer utilization (%)
system.tol2bus.respLayer0.occupancy           2080999                       # Layer occupancy (ticks)
system.tol2bus.respLayer0.utilization             0.0                       # Layer utilization (%)
system.tol2bus.respLayer1.occupancy          15734499                       # Layer occupancy (ticks)
system.tol2bus.respLayer1.utilization             0.3                       # Layer utilization (%)
system.voltage_domain.voltage                       1                       # Voltage in Volts

---------- End Simulation Statistics   ----------
