
---------- Begin Simulation Statistics ----------
final_tick                                 5193151000                       # Number of ticks from beginning of simulation (restored from checkpoints and never reset)
host_inst_rate                                  75056                       # Simulator instruction rate (inst/s)
host_mem_usage                                1206052                       # Number of bytes of host memory used
host_op_rate                                   134661                       # Simulator op (including micro ops) rate (op/s)
host_seconds                                   258.01                       # Real time elapsed on the host
host_tick_rate                               20127797                       # Simulator tick rate (ticks/s)
sim_freq                                 1000000000000                       # Frequency of simulated ticks
sim_insts                                    19365005                       # Number of instructions simulated
sim_ops                                      34743763                       # Number of ops (including micro ops) simulated
sim_seconds                                  0.005193                       # Number of seconds simulated
sim_ticks                                  5193151000                       # Number of ticks simulated
system.cpu.cc_regfile_reads                  10421132                       # number of cc regfile reads
system.cpu.cc_regfile_writes                  5848846                       # number of cc regfile writes
system.cpu.committedInsts                    19365005                       # Number of Instructions Simulated
system.cpu.committedOps                      34743763                       # Number of Ops (including micro ops) Simulated
system.cpu.cpi                               0.536344                       # CPI: Cycles Per Instruction
system.cpu.cpi_total                         0.536344                       # CPI: Total CPI of All Threads
system.cpu.fp_regfile_reads                   2189609                       # number of floating regfile reads
system.cpu.fp_regfile_writes                  3623663                       # number of floating regfile writes
system.cpu.idleCycles                           93018                       # Total number of cycles that the CPU has spent unscheduled due to idling
system.cpu.iew.branchMispredicts                18511                       # Number of branch mispredicts detected at execute
system.cpu.iew.exec_branches                  3318410                       # Number of branches executed
system.cpu.iew.exec_nop                             0                       # number of nop insts executed
system.cpu.iew.exec_rate                     3.391111                       # Inst execution rate
system.cpu.iew.exec_refs                     12151793                       # number of memory reference insts executed
system.cpu.iew.exec_stores                    4096315                       # Number of stores executed
system.cpu.iew.exec_swp                             0                       # number of swp insts executed
system.cpu.iew.iewBlockCycles                  184926                       # Number of cycles IEW is blocking
system.cpu.iew.iewDispLoadInsts               8089825                       # Number of dispatched load instructions
system.cpu.iew.iewDispNonSpecInsts                 46                       # Number of dispatched non-speculative instructions
system.cpu.iew.iewDispSquashedInsts               409                       # Number of squashed instructions skipped by dispatch
system.cpu.iew.iewDispStoreInsts              4121867                       # Number of dispatched store instructions
system.cpu.iew.iewDispatchedInsts            35477786                       # Number of instructions dispatched to IQ
system.cpu.iew.iewExecLoadInsts               8055478                       # Number of load instructions executed
system.cpu.iew.iewExecSquashedInsts             46748                       # Number of squashed instructions skipped in execute
system.cpu.iew.iewExecutedInsts              35221102                       # Number of executed instructions
system.cpu.iew.iewIQFullEvents                   1017                       # Number of times the IQ has become full, causing a stall
system.cpu.iew.iewIdleCycles                        0                       # Number of cycles IEW is idle
system.cpu.iew.iewLSQFullEvents                123033                       # Number of times the LSQ has become full, causing a stall
system.cpu.iew.iewSquashCycles                  18148                       # Number of cycles IEW is squashing
system.cpu.iew.iewUnblockCycles                126139                       # Number of cycles IEW is unblocking
system.cpu.iew.memOrderViolationEvents            523                       # Number of memory order violations
system.cpu.iew.predictedNotTakenIncorrect        13348                       # Number of branches that were predicted not taken incorrectly
system.cpu.iew.predictedTakenIncorrect           5163                       # Number of branches that were predicted taken incorrectly
system.cpu.iew.wb_consumers                  33397130                       # num instructions consuming a value
system.cpu.iew.wb_count                      35187496                       # cumulative count of insts written-back
system.cpu.iew.wb_fanout                     0.713520                       # average fanout of values written-back
system.cpu.iew.wb_producers                  23829526                       # num instructions producing a value
system.cpu.iew.wb_rate                       3.387875                       # insts written-back per cycle
system.cpu.iew.wb_sent                       35201529                       # cumulative count of insts sent to commit
system.cpu.int_regfile_reads                 55688864                       # number of integer regfile reads
system.cpu.int_regfile_writes                24192414                       # number of integer regfile writes
system.cpu.ipc                               1.864475                       # IPC: Instructions Per Cycle
system.cpu.ipc_total                         1.864475                       # IPC: Total IPC of All Threads
system.cpu.iq.FU_type_0::No_OpClass            100510      0.28%      0.28% # Type of FU issued
system.cpu.iq.FU_type_0::IntAlu              20334263     57.66%     57.94% # Type of FU issued
system.cpu.iq.FU_type_0::IntMult               518597      1.47%     59.41% # Type of FU issued
system.cpu.iq.FU_type_0::IntDiv                 54287      0.15%     59.57% # Type of FU issued
system.cpu.iq.FU_type_0::FloatAdd             1522283      4.32%     63.88% # Type of FU issued
system.cpu.iq.FU_type_0::FloatCmp                   0      0.00%     63.88% # Type of FU issued
system.cpu.iq.FU_type_0::FloatCvt                  96      0.00%     63.88% # Type of FU issued
system.cpu.iq.FU_type_0::FloatMult                  0      0.00%     63.88% # Type of FU issued
system.cpu.iq.FU_type_0::FloatMultAcc               0      0.00%     63.88% # Type of FU issued
system.cpu.iq.FU_type_0::FloatDiv                   0      0.00%     63.88% # Type of FU issued
system.cpu.iq.FU_type_0::FloatMisc                  0      0.00%     63.88% # Type of FU issued
system.cpu.iq.FU_type_0::FloatSqrt                  0      0.00%     63.88% # Type of FU issued
system.cpu.iq.FU_type_0::SimdAdd                  476      0.00%     63.88% # Type of FU issued
system.cpu.iq.FU_type_0::SimdAddAcc                 0      0.00%     63.88% # Type of FU issued
system.cpu.iq.FU_type_0::SimdAlu                21304      0.06%     63.94% # Type of FU issued
system.cpu.iq.FU_type_0::SimdCmp                    0      0.00%     63.94% # Type of FU issued
system.cpu.iq.FU_type_0::SimdCvt                11188      0.03%     63.98% # Type of FU issued
system.cpu.iq.FU_type_0::SimdMisc               27935      0.08%     64.06% # Type of FU issued
system.cpu.iq.FU_type_0::SimdMult                   0      0.00%     64.06% # Type of FU issued
system.cpu.iq.FU_type_0::SimdMultAcc                0      0.00%     64.06% # Type of FU issued
system.cpu.iq.FU_type_0::SimdShift                501      0.00%     64.06% # Type of FU issued
system.cpu.iq.FU_type_0::SimdShiftAcc               0      0.00%     64.06% # Type of FU issued
system.cpu.iq.FU_type_0::SimdDiv                    0      0.00%     64.06% # Type of FU issued
system.cpu.iq.FU_type_0::SimdSqrt                   0      0.00%     64.06% # Type of FU issued
system.cpu.iq.FU_type_0::SimdFloatAdd               0      0.00%     64.06% # Type of FU issued
system.cpu.iq.FU_type_0::SimdFloatAlu               0      0.00%     64.06% # Type of FU issued
system.cpu.iq.FU_type_0::SimdFloatCmp               0      0.00%     64.06% # Type of FU issued
system.cpu.iq.FU_type_0::SimdFloatCvt          508533      1.44%     65.50% # Type of FU issued
system.cpu.iq.FU_type_0::SimdFloatDiv               0      0.00%     65.50% # Type of FU issued
system.cpu.iq.FU_type_0::SimdFloatMisc              0      0.00%     65.50% # Type of FU issued
system.cpu.iq.FU_type_0::SimdFloatMult              0      0.00%     65.50% # Type of FU issued
system.cpu.iq.FU_type_0::SimdFloatMultAcc            0      0.00%     65.50% # Type of FU issued
system.cpu.iq.FU_type_0::SimdFloatSqrt              0      0.00%     65.50% # Type of FU issued
system.cpu.iq.FU_type_0::SimdReduceAdd              0      0.00%     65.50% # Type of FU issued
system.cpu.iq.FU_type_0::SimdReduceAlu              0      0.00%     65.50% # Type of FU issued
system.cpu.iq.FU_type_0::SimdReduceCmp              0      0.00%     65.50% # Type of FU issued
system.cpu.iq.FU_type_0::SimdFloatReduceAdd            0      0.00%     65.50% # Type of FU issued
system.cpu.iq.FU_type_0::SimdFloatReduceCmp            0      0.00%     65.50% # Type of FU issued
system.cpu.iq.FU_type_0::SimdAes                    0      0.00%     65.50% # Type of FU issued
system.cpu.iq.FU_type_0::SimdAesMix                 0      0.00%     65.50% # Type of FU issued
system.cpu.iq.FU_type_0::SimdSha1Hash               0      0.00%     65.50% # Type of FU issued
system.cpu.iq.FU_type_0::SimdSha1Hash2              0      0.00%     65.50% # Type of FU issued
system.cpu.iq.FU_type_0::SimdSha256Hash             0      0.00%     65.50% # Type of FU issued
system.cpu.iq.FU_type_0::SimdSha256Hash2            0      0.00%     65.50% # Type of FU issued
system.cpu.iq.FU_type_0::SimdShaSigma2              0      0.00%     65.50% # Type of FU issued
system.cpu.iq.FU_type_0::SimdShaSigma3              0      0.00%     65.50% # Type of FU issued
system.cpu.iq.FU_type_0::SimdPredAlu                0      0.00%     65.50% # Type of FU issued
system.cpu.iq.FU_type_0::MemRead              6014315     17.05%     82.55% # Type of FU issued
system.cpu.iq.FU_type_0::MemWrite             3065382      8.69%     91.24% # Type of FU issued
system.cpu.iq.FU_type_0::FloatMemRead         2052728      5.82%     97.06% # Type of FU issued
system.cpu.iq.FU_type_0::FloatMemWrite        1035452      2.94%    100.00% # Type of FU issued
system.cpu.iq.FU_type_0::IprAccess                  0      0.00%    100.00% # Type of FU issued
system.cpu.iq.FU_type_0::InstPrefetch               0      0.00%    100.00% # Type of FU issued
system.cpu.iq.FU_type_0::total               35267850                       # Type of FU issued
system.cpu.iq.fp_alu_accesses                 5197783                       # Number of floating point alu accesses
system.cpu.iq.fp_inst_queue_reads            10386616                       # Number of floating instruction queue reads
system.cpu.iq.fp_inst_queue_wakeup_accesses      5174710                       # Number of floating instruction queue wakeup accesses
system.cpu.iq.fp_inst_queue_writes            5230728                       # Number of floating instruction queue writes
system.cpu.iq.fu_busy_cnt                      906161                       # FU busy when requested
system.cpu.iq.fu_busy_rate                   0.025694                       # FU busy rate (busy events/executed inst)
system.cpu.iq.fu_full::No_OpClass                   0      0.00%      0.00% # attempts to use FU when none available
system.cpu.iq.fu_full::IntAlu                  554457     61.19%     61.19% # attempts to use FU when none available
system.cpu.iq.fu_full::IntMult                      0      0.00%     61.19% # attempts to use FU when none available
system.cpu.iq.fu_full::IntDiv                       0      0.00%     61.19% # attempts to use FU when none available
system.cpu.iq.fu_full::FloatAdd                     0      0.00%     61.19% # attempts to use FU when none available
system.cpu.iq.fu_full::FloatCmp                     0      0.00%     61.19% # attempts to use FU when none available
system.cpu.iq.fu_full::FloatCvt                     0      0.00%     61.19% # attempts to use FU when none available
system.cpu.iq.fu_full::FloatMult                    0      0.00%     61.19% # attempts to use FU when none available
system.cpu.iq.fu_full::FloatMultAcc                 0      0.00%     61.19% # attempts to use FU when none available
system.cpu.iq.fu_full::FloatDiv                     0      0.00%     61.19% # attempts to use FU when none available
system.cpu.iq.fu_full::FloatMisc                    0      0.00%     61.19% # attempts to use FU when none available
system.cpu.iq.fu_full::FloatSqrt                    0      0.00%     61.19% # attempts to use FU when none available
system.cpu.iq.fu_full::SimdAdd                      0      0.00%     61.19% # attempts to use FU when none available
system.cpu.iq.fu_full::SimdAddAcc                   0      0.00%     61.19% # attempts to use FU when none available
system.cpu.iq.fu_full::SimdAlu                   1010      0.11%     61.30% # attempts to use FU when none available
system.cpu.iq.fu_full::SimdCmp                      0      0.00%     61.30% # attempts to use FU when none available
system.cpu.iq.fu_full::SimdCvt                     20      0.00%     61.30% # attempts to use FU when none available
system.cpu.iq.fu_full::SimdMisc                     5      0.00%     61.30% # attempts to use FU when none available
system.cpu.iq.fu_full::SimdMult                     0      0.00%     61.30% # attempts to use FU when none available
system.cpu.iq.fu_full::SimdMultAcc                  0      0.00%     61.30% # attempts to use FU when none available
system.cpu.iq.fu_full::SimdShift                   16      0.00%     61.30% # attempts to use FU when none available
system.cpu.iq.fu_full::SimdShiftAcc                 0      0.00%     61.30% # attempts to use FU when none available
system.cpu.iq.fu_full::SimdDiv                      0      0.00%     61.30% # attempts to use FU when none available
system.cpu.iq.fu_full::SimdSqrt                     0      0.00%     61.30% # attempts to use FU when none available
system.cpu.iq.fu_full::SimdFloatAdd                 0      0.00%     61.30% # attempts to use FU when none available
system.cpu.iq.fu_full::SimdFloatAlu                 0      0.00%     61.30% # attempts to use FU when none available
system.cpu.iq.fu_full::SimdFloatCmp                 0      0.00%     61.30% # attempts to use FU when none available
system.cpu.iq.fu_full::SimdFloatCvt                 0      0.00%     61.30% # attempts to use FU when none available
system.cpu.iq.fu_full::SimdFloatDiv                 0      0.00%     61.30% # attempts to use FU when none available
system.cpu.iq.fu_full::SimdFloatMisc                0      0.00%     61.30% # attempts to use FU when none available
system.cpu.iq.fu_full::SimdFloatMult                0      0.00%     61.30% # attempts to use FU when none available
system.cpu.iq.fu_full::SimdFloatMultAcc             0      0.00%     61.30% # attempts to use FU when none available
system.cpu.iq.fu_full::SimdFloatSqrt                0      0.00%     61.30% # attempts to use FU when none available
system.cpu.iq.fu_full::SimdReduceAdd                0      0.00%     61.30% # attempts to use FU when none available
system.cpu.iq.fu_full::SimdReduceAlu                0      0.00%     61.30% # attempts to use FU when none available
system.cpu.iq.fu_full::SimdReduceCmp                0      0.00%     61.30% # attempts to use FU when none available
system.cpu.iq.fu_full::SimdFloatReduceAdd            0      0.00%     61.30% # attempts to use FU when none available
system.cpu.iq.fu_full::SimdFloatReduceCmp            0      0.00%     61.30% # attempts to use FU when none available
system.cpu.iq.fu_full::SimdAes                      0      0.00%     61.30% # attempts to use FU when none available
system.cpu.iq.fu_full::SimdAesMix                   0      0.00%     61.30% # attempts to use FU when none available
system.cpu.iq.fu_full::SimdSha1Hash                 0      0.00%     61.30% # attempts to use FU when none available
system.cpu.iq.fu_full::SimdSha1Hash2                0      0.00%     61.30% # attempts to use FU when none available
system.cpu.iq.fu_full::SimdSha256Hash               0      0.00%     61.30% # attempts to use FU when none available
system.cpu.iq.fu_full::SimdSha256Hash2              0      0.00%     61.30% # attempts to use FU when none available
system.cpu.iq.fu_full::SimdShaSigma2                0      0.00%     61.30% # attempts to use FU when none available
system.cpu.iq.fu_full::SimdShaSigma3                0      0.00%     61.30% # attempts to use FU when none available
system.cpu.iq.fu_full::SimdPredAlu                  0      0.00%     61.30% # attempts to use FU when none available
system.cpu.iq.fu_full::MemRead                 337965     37.30%     98.60% # attempts to use FU when none available
system.cpu.iq.fu_full::MemWrite                  4717      0.52%     99.12% # attempts to use FU when none available
system.cpu.iq.fu_full::FloatMemRead              3010      0.33%     99.45% # attempts to use FU when none available
system.cpu.iq.fu_full::FloatMemWrite             4961      0.55%    100.00% # attempts to use FU when none available
system.cpu.iq.fu_full::IprAccess                    0      0.00%    100.00% # attempts to use FU when none available
system.cpu.iq.fu_full::InstPrefetch                 0      0.00%    100.00% # attempts to use FU when none available
system.cpu.iq.int_alu_accesses               30875718                       # Number of integer alu accesses
system.cpu.iq.int_inst_queue_reads           71352015                       # Number of integer instruction queue reads
system.cpu.iq.int_inst_queue_wakeup_accesses     30012786                       # Number of integer instruction queue wakeup accesses
system.cpu.iq.int_inst_queue_writes          30981592                       # Number of integer instruction queue writes
system.cpu.iq.iqInstsAdded                   35477738                       # Number of instructions added to the IQ (excludes non-spec)
system.cpu.iq.iqInstsIssued                  35267850                       # Number of instructions issued
system.cpu.iq.iqNonSpecInstsAdded                  48                       # Number of non-speculative instructions added to the IQ
system.cpu.iq.iqSquashedInstsExamined          734017                       # Number of squashed instructions iterated over during squash; mainly for profiling
system.cpu.iq.iqSquashedInstsIssued              3485                       # Number of squashed instructions issued
system.cpu.iq.iqSquashedNonSpecRemoved             12                       # Number of squashed non-spec instructions that were removed
system.cpu.iq.iqSquashedOperandsExamined       918123                       # Number of squashed operands that are examined and possibly removed from graph
system.cpu.iq.issued_per_cycle::samples      10293285                       # Number of insts issued each cycle
system.cpu.iq.issued_per_cycle::mean         3.426297                       # Number of insts issued each cycle
system.cpu.iq.issued_per_cycle::stdev        1.933868                       # Number of insts issued each cycle
system.cpu.iq.issued_per_cycle::underflows            0      0.00%      0.00% # Number of insts issued each cycle
system.cpu.iq.issued_per_cycle::0             1266498     12.30%     12.30% # Number of insts issued each cycle
system.cpu.iq.issued_per_cycle::1              374025      3.63%     15.94% # Number of insts issued each cycle
system.cpu.iq.issued_per_cycle::2             1712617     16.64%     32.58% # Number of insts issued each cycle
system.cpu.iq.issued_per_cycle::3             1393459     13.54%     46.11% # Number of insts issued each cycle
system.cpu.iq.issued_per_cycle::4             2394492     23.26%     69.38% # Number of insts issued each cycle
system.cpu.iq.issued_per_cycle::5             1605465     15.60%     84.97% # Number of insts issued each cycle
system.cpu.iq.issued_per_cycle::6             1246150     12.11%     97.08% # Number of insts issued each cycle
system.cpu.iq.issued_per_cycle::7              198611      1.93%     99.01% # Number of insts issued each cycle
system.cpu.iq.issued_per_cycle::8              101968      0.99%    100.00% # Number of insts issued each cycle
system.cpu.iq.issued_per_cycle::overflows            0      0.00%    100.00% # Number of insts issued each cycle
system.cpu.iq.issued_per_cycle::min_value            0                       # Number of insts issued each cycle
system.cpu.iq.issued_per_cycle::max_value            8                       # Number of insts issued each cycle
system.cpu.iq.issued_per_cycle::total        10293285                       # Number of insts issued each cycle
system.cpu.iq.rate                           3.395612                       # Inst issue rate
system.cpu.iq.vec_alu_accesses                      0                       # Number of vector alu accesses
system.cpu.iq.vec_inst_queue_reads                  0                       # Number of vector instruction queue reads
system.cpu.iq.vec_inst_queue_wakeup_accesses            0                       # Number of vector instruction queue wakeup accesses
system.cpu.iq.vec_inst_queue_writes                 0                       # Number of vector instruction queue writes
system.cpu.memDep0.conflictingLoads           2570697                       # Number of conflicting loads.
system.cpu.memDep0.conflictingStores           913947                       # Number of conflicting stores.
system.cpu.memDep0.insertedLoads              8089825                       # Number of loads inserted to the mem dependence unit.
system.cpu.memDep0.insertedStores             4121867                       # Number of stores inserted to the mem dependence unit.
system.cpu.misc_regfile_reads                18267840                       # number of misc regfile reads
system.cpu.misc_regfile_writes                     36                       # number of misc regfile writes
system.cpu.numCycles                         10386303                       # number of cpu cycles simulated
system.cpu.numWorkItemsCompleted                    0                       # number of work items this cpu completed
system.cpu.numWorkItemsStarted                      0                       # number of work items this cpu started
system.cpu.timesIdled                             932                       # Number of times that the entire CPU went into an idle state and unscheduled itself
system.cpu.workload.numSyscalls                  1034                       # Number of system calls
system.membus.snoop_filter.hit_multi_requests            0                       # Number of requests hitting in the snoop filter with multiple (>1) holders of the requested data.
system.membus.snoop_filter.hit_multi_snoops            0                       # Number of snoops hitting in the snoop filter with multiple (>1) holders of the requested data.
system.membus.snoop_filter.hit_single_requests          239                       # Number of requests hitting in the snoop filter with a single holder of the requested data.
system.membus.snoop_filter.hit_single_snoops            0                       # Number of snoops hitting in the snoop filter with a single holder of the requested data.
system.membus.snoop_filter.tot_requests          7277                       # Total number of requests made to the snoop filter.
system.membus.snoop_filter.tot_snoops               0                       # Total number of snoops made to the snoop filter.
system.tol2bus.snoop_filter.hit_multi_requests           14                       # Number of requests hitting in the snoop filter with multiple (>1) holders of the requested data.
system.tol2bus.snoop_filter.hit_multi_snoops            0                       # Number of snoops hitting in the snoop filter with multiple (>1) holders of the requested data.
system.tol2bus.snoop_filter.hit_single_requests         8380                       # Number of requests hitting in the snoop filter with a single holder of the requested data.
system.tol2bus.snoop_filter.hit_single_snoops           84                       # Number of snoops hitting in the snoop filter with a single holder of the requested data.
system.tol2bus.snoop_filter.tot_requests        18294                       # Total number of requests made to the snoop filter.
system.tol2bus.snoop_filter.tot_snoops             84                       # Total number of snoops made to the snoop filter.
system.clk_domain.clock                           500                       # Clock period in ticks
system.cpu.branchPred.lookups                 3405342                       # Number of BP lookups
system.cpu.branchPred.condPredicted           1657926                       # Number of conditional branches predicted
system.cpu.branchPred.condIncorrect             20042                       # Number of conditional branches incorrect
system.cpu.branchPred.BTBLookups              1384577                       # Number of BTB lookups
system.cpu.branchPred.BTBHits                 1377490                       # Number of BTB hits
system.cpu.branchPred.BTBHitPct             99.488147                       # BTB Hit Percentage
system.cpu.branchPred.RASUsed                  573880                       # Number of times the RAS was used to get a target.
system.cpu.branchPred.RASIncorrect                989                       # Number of incorrect RAS predictions.
system.cpu.branchPred.indirectLookups          538614                       # Number of indirect predictor lookups.
system.cpu.branchPred.indirectHits             532241                       # Number of indirect target hits.
system.cpu.branchPred.indirectMisses             6373                       # Number of indirect misses.
system.cpu.branchPred.indirectMispredicted          332                       # Number of mispredicted indirect branches.
system.cpu.commit.commitSquashedInsts          682655                       # The number of squashed insts skipped by commit
system.cpu.commit.commitNonSpecStalls              36                       # The number of times commit has been forced to stall to communicate backwards
system.cpu.commit.branchMispredicts             16579                       # The number of times a branch was mispredicted
system.cpu.commit.numCommittedDist::samples     10195929                       # Number of insts commited each cycle
system.cpu.commit.numCommittedDist::mean     3.407611                       # Number of insts commited each cycle
system.cpu.commit.numCommittedDist::stdev     3.205894                       # Number of insts commited each cycle
system.cpu.commit.numCommittedDist::underflows            0      0.00%      0.00% # Number of insts commited each cycle
system.cpu.commit.numCommittedDist::0         2518877     24.70%     24.70% # Number of insts commited each cycle
system.cpu.commit.numCommittedDist::1         1313416     12.88%     37.59% # Number of insts commited each cycle
system.cpu.commit.numCommittedDist::2         1747100     17.14%     54.72% # Number of insts commited each cycle
system.cpu.commit.numCommittedDist::3          826896      8.11%     62.83% # Number of insts commited each cycle
system.cpu.commit.numCommittedDist::4          598644      5.87%     68.70% # Number of insts commited each cycle
system.cpu.commit.numCommittedDist::5           86079      0.84%     69.55% # Number of insts commited each cycle
system.cpu.commit.numCommittedDist::6           64202      0.63%     70.18% # Number of insts commited each cycle
system.cpu.commit.numCommittedDist::7           80444      0.79%     70.97% # Number of insts commited each cycle
system.cpu.commit.numCommittedDist::8         2960271     29.03%    100.00% # Number of insts commited each cycle
system.cpu.commit.numCommittedDist::overflows            0      0.00%    100.00% # Number of insts commited each cycle
system.cpu.commit.numCommittedDist::min_value            0                       # Number of insts commited each cycle
system.cpu.commit.numCommittedDist::max_value            8                       # Number of insts commited each cycle
system.cpu.commit.numCommittedDist::total     10195929                       # Number of insts commited each cycle
system.cpu.commit.instsCommitted             19365005                       # Number of instructions committed
system.cpu.commit.opsCommitted               34743763                       # Number of ops (including micro ops) committed
system.cpu.commit.memRefs                    12049572                       # Number of memory references committed
system.cpu.commit.loads                       7970902                       # Number of loads committed
system.cpu.commit.amos                              0                       # Number of atomic instructions committed
system.cpu.commit.membars                           0                       # Number of memory barriers committed
system.cpu.commit.branches                    3279695                       # Number of branches committed
system.cpu.commit.vector                            0                       # Number of committed Vector instructions.
system.cpu.commit.floating                    5165664                       # Number of committed floating point instructions.
system.cpu.commit.integer                    32565744                       # Number of committed integer instructions.
system.cpu.commit.functionCalls                563409                       # Number of function calls committed.
system.cpu.commit.committedInstType_0::No_OpClass        97178      0.28%      0.28% # Class of committed instruction
system.cpu.commit.committedInstType_0::IntAlu     19942484     57.40%     57.68% # Class of committed instruction
system.cpu.commit.committedInstType_0::IntMult       516166      1.49%     59.16% # Class of committed instruction
system.cpu.commit.committedInstType_0::IntDiv        54072      0.16%     59.32% # Class of committed instruction
system.cpu.commit.committedInstType_0::FloatAdd      1515774      4.36%     63.68% # Class of committed instruction
system.cpu.commit.committedInstType_0::FloatCmp            0      0.00%     63.68% # Class of committed instruction
system.cpu.commit.committedInstType_0::FloatCvt           64      0.00%     63.68% # Class of committed instruction
system.cpu.commit.committedInstType_0::FloatMult            0      0.00%     63.68% # Class of committed instruction
system.cpu.commit.committedInstType_0::FloatMultAcc            0      0.00%     63.68% # Class of committed instruction
system.cpu.commit.committedInstType_0::FloatDiv            0      0.00%     63.68% # Class of committed instruction
system.cpu.commit.committedInstType_0::FloatMisc            0      0.00%     63.68% # Class of committed instruction
system.cpu.commit.committedInstType_0::FloatSqrt            0      0.00%     63.68% # Class of committed instruction
system.cpu.commit.committedInstType_0::SimdAdd          372      0.00%     63.68% # Class of committed instruction
system.cpu.commit.committedInstType_0::SimdAddAcc            0      0.00%     63.68% # Class of committed instruction
system.cpu.commit.committedInstType_0::SimdAlu        20795      0.06%     63.74% # Class of committed instruction
system.cpu.commit.committedInstType_0::SimdCmp            0      0.00%     63.74% # Class of committed instruction
system.cpu.commit.committedInstType_0::SimdCvt        10808      0.03%     63.77% # Class of committed instruction
system.cpu.commit.committedInstType_0::SimdMisc        27759      0.08%     63.85% # Class of committed instruction
system.cpu.commit.committedInstType_0::SimdMult            0      0.00%     63.85% # Class of committed instruction
system.cpu.commit.committedInstType_0::SimdMultAcc            0      0.00%     63.85% # Class of committed instruction
system.cpu.commit.committedInstType_0::SimdShift          225      0.00%     63.86% # Class of committed instruction
system.cpu.commit.committedInstType_0::SimdShiftAcc            0      0.00%     63.86% # Class of committed instruction
system.cpu.commit.committedInstType_0::SimdDiv            0      0.00%     63.86% # Class of committed instruction
system.cpu.commit.committedInstType_0::SimdSqrt            0      0.00%     63.86% # Class of committed instruction
system.cpu.commit.committedInstType_0::SimdFloatAdd            0      0.00%     63.86% # Class of committed instruction
system.cpu.commit.committedInstType_0::SimdFloatAlu            0      0.00%     63.86% # Class of committed instruction
system.cpu.commit.committedInstType_0::SimdFloatCmp            0      0.00%     63.86% # Class of committed instruction
system.cpu.commit.committedInstType_0::SimdFloatCvt       508494      1.46%     65.32% # Class of committed instruction
system.cpu.commit.committedInstType_0::SimdFloatDiv            0      0.00%     65.32% # Class of committed instruction
system.cpu.commit.committedInstType_0::SimdFloatMisc            0      0.00%     65.32% # Class of committed instruction
system.cpu.commit.committedInstType_0::SimdFloatMult            0      0.00%     65.32% # Class of committed instruction
system.cpu.commit.committedInstType_0::SimdFloatMultAcc            0      0.00%     65.32% # Class of committed instruction
system.cpu.commit.committedInstType_0::SimdFloatSqrt            0      0.00%     65.32% # Class of committed instruction
system.cpu.commit.committedInstType_0::SimdReduceAdd            0      0.00%     65.32% # Class of committed instruction
system.cpu.commit.committedInstType_0::SimdReduceAlu            0      0.00%     65.32% # Class of committed instruction
system.cpu.commit.committedInstType_0::SimdReduceCmp            0      0.00%     65.32% # Class of committed instruction
system.cpu.commit.committedInstType_0::SimdFloatReduceAdd            0      0.00%     65.32% # Class of committed instruction
system.cpu.commit.committedInstType_0::SimdFloatReduceCmp            0      0.00%     65.32% # Class of committed instruction
system.cpu.commit.committedInstType_0::SimdAes            0      0.00%     65.32% # Class of committed instruction
system.cpu.commit.committedInstType_0::SimdAesMix            0      0.00%     65.32% # Class of committed instruction
system.cpu.commit.committedInstType_0::SimdSha1Hash            0      0.00%     65.32% # Class of committed instruction
system.cpu.commit.committedInstType_0::SimdSha1Hash2            0      0.00%     65.32% # Class of committed instruction
system.cpu.commit.committedInstType_0::SimdSha256Hash            0      0.00%     65.32% # Class of committed instruction
system.cpu.commit.committedInstType_0::SimdSha256Hash2            0      0.00%     65.32% # Class of committed instruction
system.cpu.commit.committedInstType_0::SimdShaSigma2            0      0.00%     65.32% # Class of committed instruction
system.cpu.commit.committedInstType_0::SimdShaSigma3            0      0.00%     65.32% # Class of committed instruction
system.cpu.commit.committedInstType_0::SimdPredAlu            0      0.00%     65.32% # Class of committed instruction
system.cpu.commit.committedInstType_0::MemRead      5932802     17.08%     82.39% # Class of committed instruction
system.cpu.commit.committedInstType_0::MemWrite      3043588      8.76%     91.15% # Class of committed instruction
system.cpu.commit.committedInstType_0::FloatMemRead      2038100      5.87%     97.02% # Class of committed instruction
system.cpu.commit.committedInstType_0::FloatMemWrite      1035082      2.98%    100.00% # Class of committed instruction
system.cpu.commit.committedInstType_0::IprAccess            0      0.00%    100.00% # Class of committed instruction
system.cpu.commit.committedInstType_0::InstPrefetch            0      0.00%    100.00% # Class of committed instruction
system.cpu.commit.committedInstType_0::total     34743763                       # Class of committed instruction
system.cpu.commit.commitEligibleSamples       2960271                       # number cycles where commit BW limit reached
system.cpu.dcache.demand_hits::.cpu.data      7799833                       # number of demand (read+write) hits
system.cpu.dcache.demand_hits::total          7799833                       # number of demand (read+write) hits
system.cpu.dcache.overall_hits::.cpu.data      7799833                       # number of overall hits
system.cpu.dcache.overall_hits::total         7799833                       # number of overall hits
system.cpu.dcache.demand_misses::.cpu.data        27411                       # number of demand (read+write) misses
system.cpu.dcache.demand_misses::total          27411                       # number of demand (read+write) misses
system.cpu.dcache.overall_misses::.cpu.data        27411                       # number of overall misses
system.cpu.dcache.overall_misses::total         27411                       # number of overall misses
system.cpu.dcache.demand_miss_latency::.cpu.data   1185811000                       # number of demand (read+write) miss cycles
system.cpu.dcache.demand_miss_latency::total   1185811000                       # number of demand (read+write) miss cycles
system.cpu.dcache.overall_miss_latency::.cpu.data   1185811000                       # number of overall miss cycles
system.cpu.dcache.overall_miss_latency::total   1185811000                       # number of overall miss cycles
system.cpu.dcache.demand_accesses::.cpu.data      7827244                       # number of demand (read+write) accesses
system.cpu.dcache.demand_accesses::total      7827244                       # number of demand (read+write) accesses
system.cpu.dcache.overall_accesses::.cpu.data      7827244                       # number of overall (read+write) accesses
system.cpu.dcache.overall_accesses::total      7827244                       # number of overall (read+write) accesses
system.cpu.dcache.demand_miss_rate::.cpu.data     0.003502                       # miss rate for demand accesses
system.cpu.dcache.demand_miss_rate::total     0.003502                       # miss rate for demand accesses
system.cpu.dcache.overall_miss_rate::.cpu.data     0.003502                       # miss rate for overall accesses
system.cpu.dcache.overall_miss_rate::total     0.003502                       # miss rate for overall accesses
system.cpu.dcache.demand_avg_miss_latency::.cpu.data 43260.406406                       # average overall miss latency
system.cpu.dcache.demand_avg_miss_latency::total 43260.406406                       # average overall miss latency
system.cpu.dcache.overall_avg_miss_latency::.cpu.data 43260.406406                       # average overall miss latency
system.cpu.dcache.overall_avg_miss_latency::total 43260.406406                       # average overall miss latency
system.cpu.dcache.blocked_cycles::no_mshrs        16493                       # number of cycles access was blocked
system.cpu.dcache.blocked_cycles::no_targets           23                       # number of cycles access was blocked
system.cpu.dcache.blocked::no_mshrs               439                       # number of cycles access was blocked
system.cpu.dcache.blocked::no_targets               3                       # number of cycles access was blocked
system.cpu.dcache.avg_blocked_cycles::no_mshrs    37.569476                       # average number of cycles each access was blocked
system.cpu.dcache.avg_blocked_cycles::no_targets     7.666667                       # average number of cycles each access was blocked
system.cpu.dcache.writebacks::.writebacks         5827                       # number of writebacks
system.cpu.dcache.writebacks::total              5827                       # number of writebacks
system.cpu.dcache.demand_mshr_hits::.cpu.data        18911                       # number of demand (read+write) MSHR hits
system.cpu.dcache.demand_mshr_hits::total        18911                       # number of demand (read+write) MSHR hits
system.cpu.dcache.overall_mshr_hits::.cpu.data        18911                       # number of overall MSHR hits
system.cpu.dcache.overall_mshr_hits::total        18911                       # number of overall MSHR hits
system.cpu.dcache.demand_mshr_misses::.cpu.data         8500                       # number of demand (read+write) MSHR misses
system.cpu.dcache.demand_mshr_misses::total         8500                       # number of demand (read+write) MSHR misses
system.cpu.dcache.overall_mshr_misses::.cpu.data         8500                       # number of overall MSHR misses
system.cpu.dcache.overall_mshr_misses::total         8500                       # number of overall MSHR misses
system.cpu.dcache.demand_mshr_miss_latency::.cpu.data    449787000                       # number of demand (read+write) MSHR miss cycles
system.cpu.dcache.demand_mshr_miss_latency::total    449787000                       # number of demand (read+write) MSHR miss cycles
system.cpu.dcache.overall_mshr_miss_latency::.cpu.data    449787000                       # number of overall MSHR miss cycles
system.cpu.dcache.overall_mshr_miss_latency::total    449787000                       # number of overall MSHR miss cycles
system.cpu.dcache.demand_mshr_miss_rate::.cpu.data     0.001086                       # mshr miss rate for demand accesses
system.cpu.dcache.demand_mshr_miss_rate::total     0.001086                       # mshr miss rate for demand accesses
system.cpu.dcache.overall_mshr_miss_rate::.cpu.data     0.001086                       # mshr miss rate for overall accesses
system.cpu.dcache.overall_mshr_miss_rate::total     0.001086                       # mshr miss rate for overall accesses
system.cpu.dcache.demand_avg_mshr_miss_latency::.cpu.data 52916.117647                       # average overall mshr miss latency
system.cpu.dcache.demand_avg_mshr_miss_latency::total 52916.117647                       # average overall mshr miss latency
system.cpu.dcache.overall_avg_mshr_miss_latency::.cpu.data 52916.117647                       # average overall mshr miss latency
system.cpu.dcache.overall_avg_mshr_miss_latency::total 52916.117647                       # average overall mshr miss latency
system.cpu.dcache.replacements                   7475                       # number of replacements
system.cpu.dcache.ReadReq_hits::.cpu.data      3724858                       # number of ReadReq hits
system.cpu.dcache.ReadReq_hits::total         3724858                       # number of ReadReq hits
system.cpu.dcache.ReadReq_misses::.cpu.data        23716                       # number of ReadReq misses
system.cpu.dcache.ReadReq_misses::total         23716                       # number of ReadReq misses
system.cpu.dcache.ReadReq_miss_latency::.cpu.data    918753000                       # number of ReadReq miss cycles
system.cpu.dcache.ReadReq_miss_latency::total    918753000                       # number of ReadReq miss cycles
system.cpu.dcache.ReadReq_accesses::.cpu.data      3748574                       # number of ReadReq accesses(hits+misses)
system.cpu.dcache.ReadReq_accesses::total      3748574                       # number of ReadReq accesses(hits+misses)
system.cpu.dcache.ReadReq_miss_rate::.cpu.data     0.006327                       # miss rate for ReadReq accesses
system.cpu.dcache.ReadReq_miss_rate::total     0.006327                       # miss rate for ReadReq accesses
system.cpu.dcache.ReadReq_avg_miss_latency::.cpu.data 38739.795918                       # average ReadReq miss latency
system.cpu.dcache.ReadReq_avg_miss_latency::total 38739.795918                       # average ReadReq miss latency
system.cpu.dcache.ReadReq_mshr_hits::.cpu.data        18863                       # number of ReadReq MSHR hits
system.cpu.dcache.ReadReq_mshr_hits::total        18863                       # number of ReadReq MSHR hits
system.cpu.dcache.ReadReq_mshr_misses::.cpu.data         4853                       # number of ReadReq MSHR misses
system.cpu.dcache.ReadReq_mshr_misses::total         4853                       # number of ReadReq MSHR misses
system.cpu.dcache.ReadReq_mshr_miss_latency::.cpu.data    189972500                       # number of ReadReq MSHR miss cycles
system.cpu.dcache.ReadReq_mshr_miss_latency::total    189972500                       # number of ReadReq MSHR miss cycles
system.cpu.dcache.ReadReq_mshr_miss_rate::.cpu.data     0.001295                       # mshr miss rate for ReadReq accesses
system.cpu.dcache.ReadReq_mshr_miss_rate::total     0.001295                       # mshr miss rate for ReadReq accesses
system.cpu.dcache.ReadReq_avg_mshr_miss_latency::.cpu.data 39145.373995                       # average ReadReq mshr miss latency
system.cpu.dcache.ReadReq_avg_mshr_miss_latency::total 39145.373995                       # average ReadReq mshr miss latency
system.cpu.dcache.WriteReq_hits::.cpu.data      4074975                       # number of WriteReq hits
system.cpu.dcache.WriteReq_hits::total        4074975                       # number of WriteReq hits
system.cpu.dcache.WriteReq_misses::.cpu.data         3695                       # number of WriteReq misses
system.cpu.dcache.WriteReq_misses::total         3695                       # number of WriteReq misses
system.cpu.dcache.WriteReq_miss_latency::.cpu.data    267058000                       # number of WriteReq miss cycles
system.cpu.dcache.WriteReq_miss_latency::total    267058000                       # number of WriteReq miss cycles
system.cpu.dcache.WriteReq_accesses::.cpu.data      4078670                       # number of WriteReq accesses(hits+misses)
system.cpu.dcache.WriteReq_accesses::total      4078670                       # number of WriteReq accesses(hits+misses)
system.cpu.dcache.WriteReq_miss_rate::.cpu.data     0.000906                       # miss rate for WriteReq accesses
system.cpu.dcache.WriteReq_miss_rate::total     0.000906                       # miss rate for WriteReq accesses
system.cpu.dcache.WriteReq_avg_miss_latency::.cpu.data 72275.507442                       # average WriteReq miss latency
system.cpu.dcache.WriteReq_avg_miss_latency::total 72275.507442                       # average WriteReq miss latency
system.cpu.dcache.WriteReq_mshr_hits::.cpu.data           48                       # number of WriteReq MSHR hits
system.cpu.dcache.WriteReq_mshr_hits::total           48                       # number of WriteReq MSHR hits
system.cpu.dcache.WriteReq_mshr_misses::.cpu.data         3647                       # number of WriteReq MSHR misses
system.cpu.dcache.WriteReq_mshr_misses::total         3647                       # number of WriteReq MSHR misses
system.cpu.dcache.WriteReq_mshr_miss_latency::.cpu.data    259814500                       # number of WriteReq MSHR miss cycles
system.cpu.dcache.WriteReq_mshr_miss_latency::total    259814500                       # number of WriteReq MSHR miss cycles
system.cpu.dcache.WriteReq_mshr_miss_rate::.cpu.data     0.000894                       # mshr miss rate for WriteReq accesses
system.cpu.dcache.WriteReq_mshr_miss_rate::total     0.000894                       # mshr miss rate for WriteReq accesses
system.cpu.dcache.WriteReq_avg_mshr_miss_latency::.cpu.data 71240.608719                       # average WriteReq mshr miss latency
system.cpu.dcache.WriteReq_avg_mshr_miss_latency::total 71240.608719                       # average WriteReq mshr miss latency
system.cpu.dcache.power_state.pwrStateResidencyTicks::UNDEFINED   5193151000                       # Cumulative time (in ticks) in various power states
system.cpu.dcache.tags.tagsinuse          1015.174830                       # Cycle average of tags in use
system.cpu.dcache.tags.total_refs             7808333                       # Total number of references to valid blocks.
system.cpu.dcache.tags.sampled_refs              8499                       # Sample count of references to valid blocks.
system.cpu.dcache.tags.avg_refs            918.735498                       # Average number of references to valid blocks.
system.cpu.dcache.tags.warmup_cycle            168000                       # Cycle when the warmup percentage was hit.
system.cpu.dcache.tags.occ_blocks::.cpu.data  1015.174830                       # Average occupied blocks per requestor
system.cpu.dcache.tags.occ_percent::.cpu.data     0.991382                       # Average percentage of cache occupancy
system.cpu.dcache.tags.occ_percent::total     0.991382                       # Average percentage of cache occupancy
system.cpu.dcache.tags.occ_task_id_blocks::1024         1024                       # Occupied blocks per task id
system.cpu.dcache.tags.age_task_id_blocks_1024::0           54                       # Occupied blocks per task id
system.cpu.dcache.tags.age_task_id_blocks_1024::1           13                       # Occupied blocks per task id
system.cpu.dcache.tags.age_task_id_blocks_1024::2          957                       # Occupied blocks per task id
system.cpu.dcache.tags.occ_task_id_percent::1024            1                       # Percentage of cache occupancy per task id
system.cpu.dcache.tags.tag_accesses          62626451                       # Number of tag accesses
system.cpu.dcache.tags.data_accesses         62626451                       # Number of data accesses
system.cpu.dcache.tags.power_state.pwrStateResidencyTicks::UNDEFINED   5193151000                       # Cumulative time (in ticks) in various power states
system.cpu.decode.idleCycles                  1263130                       # Number of cycles decode is idle
system.cpu.decode.blockedCycles               4102069                       # Number of cycles decode is blocked
system.cpu.decode.runCycles                   3921901                       # Number of cycles decode is running
system.cpu.decode.unblockCycles                988037                       # Number of cycles decode is unblocking
system.cpu.decode.squashCycles                  18148                       # Number of cycles decode is squashing
system.cpu.decode.branchResolved              1373528                       # Number of times decode resolved a  branch
system.cpu.decode.branchMispred                  4652                       # Number of times decode detected a branch misprediction
system.cpu.decode.decodedInsts               35681042                       # Number of instructions handled by decode
system.cpu.decode.squashedInsts                 33116                       # Number of squashed instructions handled by decode
system.cpu.dtb.rdAccesses                     8065082                       # TLB accesses on read requests
system.cpu.dtb.wrAccesses                     4096317                       # TLB accesses on write requests
system.cpu.dtb.rdMisses                           648                       # TLB misses on read requests
system.cpu.dtb.wrMisses                           386                       # TLB misses on write requests
system.cpu.dtb.walker.power_state.pwrStateResidencyTicks::UNDEFINED   5193151000                       # Cumulative time (in ticks) in various power states
system.cpu.dtb_walker_cache.blocked_cycles::no_mshrs            0                       # number of cycles access was blocked
system.cpu.dtb_walker_cache.blocked_cycles::no_targets            0                       # number of cycles access was blocked
system.cpu.dtb_walker_cache.blocked::no_mshrs            0                       # number of cycles access was blocked
system.cpu.dtb_walker_cache.blocked::no_targets            0                       # number of cycles access was blocked
system.cpu.dtb_walker_cache.avg_blocked_cycles::no_mshrs          nan                       # average number of cycles each access was blocked
system.cpu.dtb_walker_cache.avg_blocked_cycles::no_targets          nan                       # average number of cycles each access was blocked
system.cpu.dtb_walker_cache.replacements            0                       # number of replacements
system.cpu.dtb_walker_cache.power_state.pwrStateResidencyTicks::UNDEFINED   5193151000                       # Cumulative time (in ticks) in various power states
system.cpu.dtb_walker_cache.tags.tagsinuse            0                       # Cycle average of tags in use
system.cpu.dtb_walker_cache.tags.total_refs            0                       # Total number of references to valid blocks.
system.cpu.dtb_walker_cache.tags.sampled_refs            0                       # Sample count of references to valid blocks.
system.cpu.dtb_walker_cache.tags.avg_refs          nan                       # Average number of references to valid blocks.
system.cpu.dtb_walker_cache.tags.warmup_cycle            0                       # Cycle when the warmup percentage was hit.
system.cpu.dtb_walker_cache.tags.tag_accesses            0                       # Number of tag accesses
system.cpu.dtb_walker_cache.tags.data_accesses            0                       # Number of data accesses
system.cpu.dtb_walker_cache.tags.power_state.pwrStateResidencyTicks::UNDEFINED   5193151000                       # Cumulative time (in ticks) in various power states
system.cpu.fetch.icacheStallCycles            3157833                       # Number of cycles fetch is stalled on an Icache miss
system.cpu.fetch.insts                       19993794                       # Number of instructions fetch has processed
system.cpu.fetch.branches                     3405342                       # Number of branches that fetch encountered
system.cpu.fetch.predictedBranches            2483611                       # Number of branches that fetch has predicted taken
system.cpu.fetch.cycles                       7103681                       # Number of cycles fetch has run and was not squashing or blocked
system.cpu.fetch.squashCycles                   45568                       # Number of cycles fetch has spent squashing
system.cpu.fetch.miscStallCycles                 1319                       # Number of cycles fetch has spent waiting on interrupts,or bad addresses, or out of MSHRs
system.cpu.fetch.pendingTrapStallCycles          7656                       # Number of stall cycles due to pending traps
system.cpu.fetch.pendingQuiesceStallCycles           11                       # Number of stall cycles due to pending quiesce instructions
system.cpu.fetch.icacheWaitRetryStallCycles            1                       # Number of stall cycles due to full MSHR
system.cpu.fetch.cacheLines                   3101788                       # Number of cache lines fetched
system.cpu.fetch.icacheSquashes                  6995                       # Number of outstanding Icache misses that were squashed
system.cpu.fetch.nisnDist::samples           10293285                       # Number of instructions fetched each cycle (Total)
system.cpu.fetch.nisnDist::mean              3.487105                       # Number of instructions fetched each cycle (Total)
system.cpu.fetch.nisnDist::stdev             3.374284                       # Number of instructions fetched each cycle (Total)
system.cpu.fetch.nisnDist::underflows               0      0.00%      0.00% # Number of instructions fetched each cycle (Total)
system.cpu.fetch.nisnDist::0                  3920084     38.08%     38.08% # Number of instructions fetched each cycle (Total)
system.cpu.fetch.nisnDist::1                   638503      6.20%     44.29% # Number of instructions fetched each cycle (Total)
system.cpu.fetch.nisnDist::2                   545185      5.30%     49.58% # Number of instructions fetched each cycle (Total)
system.cpu.fetch.nisnDist::3                   588362      5.72%     55.30% # Number of instructions fetched each cycle (Total)
system.cpu.fetch.nisnDist::4                   101596      0.99%     56.29% # Number of instructions fetched each cycle (Total)
system.cpu.fetch.nisnDist::5                   581487      5.65%     61.94% # Number of instructions fetched each cycle (Total)
system.cpu.fetch.nisnDist::6                   603669      5.86%     67.80% # Number of instructions fetched each cycle (Total)
system.cpu.fetch.nisnDist::7                  1051222     10.21%     78.01% # Number of instructions fetched each cycle (Total)
system.cpu.fetch.nisnDist::8                  2263177     21.99%    100.00% # Number of instructions fetched each cycle (Total)
system.cpu.fetch.nisnDist::overflows                0      0.00%    100.00% # Number of instructions fetched each cycle (Total)
system.cpu.fetch.nisnDist::min_value                0                       # Number of instructions fetched each cycle (Total)
system.cpu.fetch.nisnDist::max_value                8                       # Number of instructions fetched each cycle (Total)
system.cpu.fetch.nisnDist::total             10293285                       # Number of instructions fetched each cycle (Total)
system.cpu.fetch.branchRate                  0.327869                       # Number of branch fetches per cycle
system.cpu.fetch.rate                        1.925015                       # Number of inst fetches per cycle
system.cpu.icache.demand_hits::.cpu.inst      3099897                       # number of demand (read+write) hits
system.cpu.icache.demand_hits::total          3099897                       # number of demand (read+write) hits
system.cpu.icache.overall_hits::.cpu.inst      3099897                       # number of overall hits
system.cpu.icache.overall_hits::total         3099897                       # number of overall hits
system.cpu.icache.demand_misses::.cpu.inst         1890                       # number of demand (read+write) misses
system.cpu.icache.demand_misses::total           1890                       # number of demand (read+write) misses
system.cpu.icache.overall_misses::.cpu.inst         1890                       # number of overall misses
system.cpu.icache.overall_misses::total          1890                       # number of overall misses
system.cpu.icache.demand_miss_latency::.cpu.inst    127280000                       # number of demand (read+write) miss cycles
system.cpu.icache.demand_miss_latency::total    127280000                       # number of demand (read+write) miss cycles
system.cpu.icache.overall_miss_latency::.cpu.inst    127280000                       # number of overall miss cycles
system.cpu.icache.overall_miss_latency::total    127280000                       # number of overall miss cycles
system.cpu.icache.demand_accesses::.cpu.inst      3101787                       # number of demand (read+write) accesses
system.cpu.icache.demand_accesses::total      3101787                       # number of demand (read+write) accesses
system.cpu.icache.overall_accesses::.cpu.inst      3101787                       # number of overall (read+write) accesses
system.cpu.icache.overall_accesses::total      3101787                       # number of overall (read+write) accesses
system.cpu.icache.demand_miss_rate::.cpu.inst     0.000609                       # miss rate for demand accesses
system.cpu.icache.demand_miss_rate::total     0.000609                       # miss rate for demand accesses
system.cpu.icache.overall_miss_rate::.cpu.inst     0.000609                       # miss rate for overall accesses
system.cpu.icache.overall_miss_rate::total     0.000609                       # miss rate for overall accesses
system.cpu.icache.demand_avg_miss_latency::.cpu.inst 67343.915344                       # average overall miss latency
system.cpu.icache.demand_avg_miss_latency::total 67343.915344                       # average overall miss latency
system.cpu.icache.overall_avg_miss_latency::.cpu.inst 67343.915344                       # average overall miss latency
system.cpu.icache.overall_avg_miss_latency::total 67343.915344                       # average overall miss latency
system.cpu.icache.blocked_cycles::no_mshrs          392                       # number of cycles access was blocked
system.cpu.icache.blocked_cycles::no_targets            0                       # number of cycles access was blocked
system.cpu.icache.blocked::no_mshrs                 5                       # number of cycles access was blocked
system.cpu.icache.blocked::no_targets               0                       # number of cycles access was blocked
system.cpu.icache.avg_blocked_cycles::no_mshrs    78.400000                       # average number of cycles each access was blocked
system.cpu.icache.avg_blocked_cycles::no_targets          nan                       # average number of cycles each access was blocked
system.cpu.icache.writebacks::.writebacks          903                       # number of writebacks
system.cpu.icache.writebacks::total               903                       # number of writebacks
system.cpu.icache.demand_mshr_hits::.cpu.inst          474                       # number of demand (read+write) MSHR hits
system.cpu.icache.demand_mshr_hits::total          474                       # number of demand (read+write) MSHR hits
system.cpu.icache.overall_mshr_hits::.cpu.inst          474                       # number of overall MSHR hits
system.cpu.icache.overall_mshr_hits::total          474                       # number of overall MSHR hits
system.cpu.icache.demand_mshr_misses::.cpu.inst         1416                       # number of demand (read+write) MSHR misses
system.cpu.icache.demand_mshr_misses::total         1416                       # number of demand (read+write) MSHR misses
system.cpu.icache.overall_mshr_misses::.cpu.inst         1416                       # number of overall MSHR misses
system.cpu.icache.overall_mshr_misses::total         1416                       # number of overall MSHR misses
system.cpu.icache.demand_mshr_miss_latency::.cpu.inst     99617000                       # number of demand (read+write) MSHR miss cycles
system.cpu.icache.demand_mshr_miss_latency::total     99617000                       # number of demand (read+write) MSHR miss cycles
system.cpu.icache.overall_mshr_miss_latency::.cpu.inst     99617000                       # number of overall MSHR miss cycles
system.cpu.icache.overall_mshr_miss_latency::total     99617000                       # number of overall MSHR miss cycles
system.cpu.icache.demand_mshr_miss_rate::.cpu.inst     0.000457                       # mshr miss rate for demand accesses
system.cpu.icache.demand_mshr_miss_rate::total     0.000457                       # mshr miss rate for demand accesses
system.cpu.icache.overall_mshr_miss_rate::.cpu.inst     0.000457                       # mshr miss rate for overall accesses
system.cpu.icache.overall_mshr_miss_rate::total     0.000457                       # mshr miss rate for overall accesses
system.cpu.icache.demand_avg_mshr_miss_latency::.cpu.inst 70350.988701                       # average overall mshr miss latency
system.cpu.icache.demand_avg_mshr_miss_latency::total 70350.988701                       # average overall mshr miss latency
system.cpu.icache.overall_avg_mshr_miss_latency::.cpu.inst 70350.988701                       # average overall mshr miss latency
system.cpu.icache.overall_avg_mshr_miss_latency::total 70350.988701                       # average overall mshr miss latency
system.cpu.icache.replacements                    903                       # number of replacements
system.cpu.icache.ReadReq_hits::.cpu.inst      3099897                       # number of ReadReq hits
system.cpu.icache.ReadReq_hits::total         3099897                       # number of ReadReq hits
system.cpu.icache.ReadReq_misses::.cpu.inst         1890                       # number of ReadReq misses
system.cpu.icache.ReadReq_misses::total          1890                       # number of ReadReq misses
system.cpu.icache.ReadReq_miss_latency::.cpu.inst    127280000                       # number of ReadReq miss cycles
system.cpu.icache.ReadReq_miss_latency::total    127280000                       # number of ReadReq miss cycles
system.cpu.icache.ReadReq_accesses::.cpu.inst      3101787                       # number of ReadReq accesses(hits+misses)
system.cpu.icache.ReadReq_accesses::total      3101787                       # number of ReadReq accesses(hits+misses)
system.cpu.icache.ReadReq_miss_rate::.cpu.inst     0.000609                       # miss rate for ReadReq accesses
system.cpu.icache.ReadReq_miss_rate::total     0.000609                       # miss rate for ReadReq accesses
system.cpu.icache.ReadReq_avg_miss_latency::.cpu.inst 67343.915344                       # average ReadReq miss latency
system.cpu.icache.ReadReq_avg_miss_latency::total 67343.915344                       # average ReadReq miss latency
system.cpu.icache.ReadReq_mshr_hits::.cpu.inst          474                       # number of ReadReq MSHR hits
system.cpu.icache.ReadReq_mshr_hits::total          474                       # number of ReadReq MSHR hits
system.cpu.icache.ReadReq_mshr_misses::.cpu.inst         1416                       # number of ReadReq MSHR misses
system.cpu.icache.ReadReq_mshr_misses::total         1416                       # number of ReadReq MSHR misses
system.cpu.icache.ReadReq_mshr_miss_latency::.cpu.inst     99617000                       # number of ReadReq MSHR miss cycles
system.cpu.icache.ReadReq_mshr_miss_latency::total     99617000                       # number of ReadReq MSHR miss cycles
system.cpu.icache.ReadReq_mshr_miss_rate::.cpu.inst     0.000457                       # mshr miss rate for ReadReq accesses
system.cpu.icache.ReadReq_mshr_miss_rate::total     0.000457                       # mshr miss rate for ReadReq accesses
system.cpu.icache.ReadReq_avg_mshr_miss_latency::.cpu.inst 70350.988701                       # average ReadReq mshr miss latency
system.cpu.icache.ReadReq_avg_mshr_miss_latency::total 70350.988701                       # average ReadReq mshr miss latency
system.cpu.icache.power_state.pwrStateResidencyTicks::UNDEFINED   5193151000                       # Cumulative time (in ticks) in various power states
system.cpu.icache.tags.tagsinuse           509.951828                       # Cycle average of tags in use
system.cpu.icache.tags.total_refs             3101312                       # Total number of references to valid blocks.
system.cpu.icache.tags.sampled_refs              1415                       # Sample count of references to valid blocks.
system.cpu.icache.tags.avg_refs           2191.739929                       # Average number of references to valid blocks.
system.cpu.icache.tags.warmup_cycle             82000                       # Cycle when the warmup percentage was hit.
system.cpu.icache.tags.occ_blocks::.cpu.inst   509.951828                       # Average occupied blocks per requestor
system.cpu.icache.tags.occ_percent::.cpu.inst     0.996000                       # Average percentage of cache occupancy
system.cpu.icache.tags.occ_percent::total     0.996000                       # Average percentage of cache occupancy
system.cpu.icache.tags.occ_task_id_blocks::1024          511                       # Occupied blocks per task id
system.cpu.icache.tags.age_task_id_blocks_1024::0           95                       # Occupied blocks per task id
system.cpu.icache.tags.age_task_id_blocks_1024::2          309                       # Occupied blocks per task id
system.cpu.icache.tags.age_task_id_blocks_1024::3          107                       # Occupied blocks per task id
system.cpu.icache.tags.occ_task_id_percent::1024     0.998047                       # Percentage of cache occupancy per task id
system.cpu.icache.tags.tag_accesses          24815711                       # Number of tag accesses
system.cpu.icache.tags.data_accesses         24815711                       # Number of data accesses
system.cpu.icache.tags.power_state.pwrStateResidencyTicks::UNDEFINED   5193151000                       # Cumulative time (in ticks) in various power states
system.cpu.interrupts.clk_domain.clock           8000                       # Clock period in ticks
system.cpu.itb.rdAccesses                           0                       # TLB accesses on read requests
system.cpu.itb.wrAccesses                     3103020                       # TLB accesses on write requests
system.cpu.itb.rdMisses                             0                       # TLB misses on read requests
system.cpu.itb.wrMisses                          1370                       # TLB misses on write requests
system.cpu.itb.walker.power_state.pwrStateResidencyTicks::UNDEFINED   5193151000                       # Cumulative time (in ticks) in various power states
system.cpu.itb_walker_cache.blocked_cycles::no_mshrs            0                       # number of cycles access was blocked
system.cpu.itb_walker_cache.blocked_cycles::no_targets            0                       # number of cycles access was blocked
system.cpu.itb_walker_cache.blocked::no_mshrs            0                       # number of cycles access was blocked
system.cpu.itb_walker_cache.blocked::no_targets            0                       # number of cycles access was blocked
system.cpu.itb_walker_cache.avg_blocked_cycles::no_mshrs          nan                       # average number of cycles each access was blocked
system.cpu.itb_walker_cache.avg_blocked_cycles::no_targets          nan                       # average number of cycles each access was blocked
system.cpu.itb_walker_cache.replacements            0                       # number of replacements
system.cpu.itb_walker_cache.power_state.pwrStateResidencyTicks::UNDEFINED   5193151000                       # Cumulative time (in ticks) in various power states
system.cpu.itb_walker_cache.tags.tagsinuse            0                       # Cycle average of tags in use
system.cpu.itb_walker_cache.tags.total_refs            0                       # Total number of references to valid blocks.
system.cpu.itb_walker_cache.tags.sampled_refs            0                       # Sample count of references to valid blocks.
system.cpu.itb_walker_cache.tags.avg_refs          nan                       # Average number of references to valid blocks.
system.cpu.itb_walker_cache.tags.warmup_cycle            0                       # Cycle when the warmup percentage was hit.
system.cpu.itb_walker_cache.tags.tag_accesses            0                       # Number of tag accesses
system.cpu.itb_walker_cache.tags.data_accesses            0                       # Number of data accesses
system.cpu.itb_walker_cache.tags.power_state.pwrStateResidencyTicks::UNDEFINED   5193151000                       # Cumulative time (in ticks) in various power states
system.cpu.lsq0.forwLoads                     4295084                       # Number of loads that had data forwarded from stores
system.cpu.lsq0.squashedLoads                  118923                       # Number of loads squashed
system.cpu.lsq0.ignoredResponses                  232                       # Number of memory responses ignored because the instruction is squashed
system.cpu.lsq0.memOrderViolation                 523                       # Number of memory ordering violations
system.cpu.lsq0.squashedStores                  43197                       # Number of stores squashed
system.cpu.lsq0.rescheduledLoads                11452                       # Number of loads that were rescheduled
system.cpu.lsq0.blockedByCache                    334                       # Number of times an access to memory failed due to the cache being blocked
system.cpu.power_state.pwrStateResidencyTicks::ON   5193151000                       # Cumulative time (in ticks) in various power states
system.cpu.rename.squashCycles                  18148                       # Number of cycles rename is squashing
system.cpu.rename.idleCycles                  1759580                       # Number of cycles rename is idle
system.cpu.rename.blockCycles                  401306                       # Number of cycles rename is blocking
system.cpu.rename.serializeStallCycles           4228                       # count of cycles rename stalledfor serializing inst
system.cpu.rename.runCycles                   4409784                       # Number of cycles rename is running
system.cpu.rename.unblockCycles               3700239                       # Number of cycles rename is unblocking
system.cpu.rename.renamedInsts               35588308                       # Number of instructions processed by rename
system.cpu.rename.ROBFullEvents                  5892                       # Number of times rename has blocked due to ROB full
system.cpu.rename.IQFullEvents                  57744                       # Number of times rename has blocked due to IQ full
system.cpu.rename.SQFullEvents                3624695                       # Number of times rename has blocked due to SQ full
system.cpu.rename.renamedOperands            34123558                       # Number of destination operands rename has renamed
system.cpu.rename.lookups                    87680250                       # Number of register rename lookups that rename has made
system.cpu.rename.intLookups                 56327426                       # Number of integer rename lookups
system.cpu.rename.fpLookups                   2208994                       # Number of floating rename lookups
system.cpu.rename.committedMaps              33148068                       # Number of HB maps that are committed
system.cpu.rename.undoneMaps                   975484                       # Number of HB maps that are undone due to squashing
system.cpu.rename.serializing                      61                       # count of serializing insts renamed
system.cpu.rename.tempSerializing                  49                       # count of temporary serializing insts renamed
system.cpu.rename.skidInsts                   5343299                       # count of insts added to the skid buffer
system.cpu.rob.reads                         42646606                       # The number of ROB reads
system.cpu.rob.writes                        70950387                       # The number of ROB writes
system.cpu.thread_0.numInsts                 19365005                       # Number of Instructions committed
system.cpu.thread_0.numOps                   34743763                       # Number of Ops committed
system.cpu.thread_0.numMemRefs                      0                       # Number of Memory References
system.cpu_clk_domain.clock                       500                       # Clock period in ticks
system.cpu_voltage_domain.voltage                   1                       # Voltage in Volts
system.l2.demand_hits::.cpu.inst                   73                       # number of demand (read+write) hits
system.l2.demand_hits::.cpu.data                 2798                       # number of demand (read+write) hits
system.l2.demand_hits::total                     2871                       # number of demand (read+write) hits
system.l2.overall_hits::.cpu.inst                  73                       # number of overall hits
system.l2.overall_hits::.cpu.data                2798                       # number of overall hits
system.l2.overall_hits::total                    2871                       # number of overall hits
system.l2.demand_misses::.cpu.inst               1338                       # number of demand (read+write) misses
system.l2.demand_misses::.cpu.data               5701                       # number of demand (read+write) misses
system.l2.demand_misses::total                   7039                       # number of demand (read+write) misses
system.l2.overall_misses::.cpu.inst              1338                       # number of overall misses
system.l2.overall_misses::.cpu.data              5701                       # number of overall misses
system.l2.overall_misses::total                  7039                       # number of overall misses
system.l2.demand_miss_latency::.cpu.inst     96669000                       # number of demand (read+write) miss cycles
system.l2.demand_miss_latency::.cpu.data    407139000                       # number of demand (read+write) miss cycles
system.l2.demand_miss_latency::total        503808000                       # number of demand (read+write) miss cycles
system.l2.overall_miss_latency::.cpu.inst     96669000                       # number of overall miss cycles
system.l2.overall_miss_latency::.cpu.data    407139000                       # number of overall miss cycles
system.l2.overall_miss_latency::total       503808000                       # number of overall miss cycles
system.l2.demand_accesses::.cpu.inst             1411                       # number of demand (read+write) accesses
system.l2.demand_accesses::.cpu.data             8499                       # number of demand (read+write) accesses
system.l2.demand_accesses::total                 9910                       # number of demand (read+write) accesses
system.l2.overall_accesses::.cpu.inst            1411                       # number of overall (read+write) accesses
system.l2.overall_accesses::.cpu.data            8499                       # number of overall (read+write) accesses
system.l2.overall_accesses::total                9910                       # number of overall (read+write) accesses
system.l2.demand_miss_rate::.cpu.inst        0.948264                       # miss rate for demand accesses
system.l2.demand_miss_rate::.cpu.data        0.670785                       # miss rate for demand accesses
system.l2.demand_miss_rate::total            0.710293                       # miss rate for demand accesses
system.l2.overall_miss_rate::.cpu.inst       0.948264                       # miss rate for overall accesses
system.l2.overall_miss_rate::.cpu.data       0.670785                       # miss rate for overall accesses
system.l2.overall_miss_rate::total           0.710293                       # miss rate for overall accesses
system.l2.demand_avg_miss_latency::.cpu.inst 72248.878924                       # average overall miss latency
system.l2.demand_avg_miss_latency::.cpu.data 71415.365725                       # average overall miss latency
system.l2.demand_avg_miss_latency::total 71573.803097                       # average overall miss latency
system.l2.overall_avg_miss_latency::.cpu.inst 72248.878924                       # average overall miss latency
system.l2.overall_avg_miss_latency::.cpu.data 71415.365725                       # average overall miss latency
system.l2.overall_avg_miss_latency::total 71573.803097                       # average overall miss latency
system.l2.blocked_cycles::no_mshrs                  0                       # number of cycles access was blocked
[...]
system.mem_ctrls.dram.readBursts                 7033                       # Number of DRAM read bursts
system.mem_ctrls.dram.writeBursts                  49                       # Number of DRAM write bursts
system.mem_ctrls.dram.perBankRdBursts::0          317                       # Per bank write bursts
system.mem_ctrls.dram.perBankRdBursts::1          468                       # Per bank write bursts
system.mem_ctrls.dram.perBankRdBursts::2          569                       # Per bank write bursts
system.mem_ctrls.dram.perBankRdBursts::3          581                       # Per bank write bursts
system.mem_ctrls.dram.perBankRdBursts::4          633                       # Per bank write bursts
system.mem_ctrls.dram.perBankRdBursts::5          516                       # Per bank write bursts
system.mem_ctrls.dram.perBankRdBursts::6          488                       # Per bank write bursts
system.mem_ctrls.dram.perBankRdBursts::7          494                       # Per bank write bursts
system.mem_ctrls.dram.perBankRdBursts::8          352                       # Per bank write bursts
system.mem_ctrls.dram.perBankRdBursts::9          383                       # Per bank write bursts
system.mem_ctrls.dram.perBankRdBursts::10          397                       # Per bank write bursts
system.mem_ctrls.dram.perBankRdBursts::11          454                       # Per bank write bursts
system.mem_ctrls.dram.perBankRdBursts::12          362                       # Per bank write bursts
system.mem_ctrls.dram.perBankRdBursts::13          346                       # Per bank write bursts
system.mem_ctrls.dram.perBankRdBursts::14          312                       # Per bank write bursts
system.mem_ctrls.dram.perBankRdBursts::15          361                       # Per bank write bursts
system.mem_ctrls.dram.perBankWrBursts::0            0                       # Per bank write bursts
system.mem_ctrls.dram.perBankWrBursts::1           10                       # Per bank write bursts
system.mem_ctrls.dram.perBankWrBursts::2            4                       # Per bank write bursts
system.mem_ctrls.dram.perBankWrBursts::3            0                       # Per bank write bursts
system.mem_ctrls.dram.perBankWrBursts::4            8                       # Per bank write bursts
system.mem_ctrls.dram.perBankWrBursts::5           17                       # Per bank write bursts
system.mem_ctrls.dram.perBankWrBursts::6            0                       # Per bank write bursts
system.mem_ctrls.dram.perBankWrBursts::7            1                       # Per bank write bursts
system.mem_ctrls.dram.perBankWrBursts::8            0                       # Per bank write bursts
system.mem_ctrls.dram.perBankWrBursts::9            0                       # Per bank write bursts
system.mem_ctrls.dram.perBankWrBursts::10            6                       # Per bank write bursts
system.mem_ctrls.dram.perBankWrBursts::11            2                       # Per bank write bursts
system.mem_ctrls.dram.perBankWrBursts::12            1                       # Per bank write bursts
system.mem_ctrls.dram.perBankWrBursts::13            0                       # Per bank write bursts
system.mem_ctrls.dram.perBankWrBursts::14            0                       # Per bank write bursts
system.mem_ctrls.dram.perBankWrBursts::15            0                       # Per bank write bursts
system.mem_ctrls.dram.totQLat                50251250                       # Total ticks spent queuing
system.mem_ctrls.dram.totBusLat              35165000                       # Total ticks spent in databus transfers
system.mem_ctrls.dram.totMemAccLat          182120000                       # Total ticks spent from burst creation until serviced by the DRAM
system.mem_ctrls.dram.avgQLat                 7145.07                       # Average queueing delay per DRAM burst
system.mem_ctrls.dram.avgBusLat               5000.00                       # Average bus latency per DRAM burst
system.mem_ctrls.dram.avgMemAccLat           25895.07                       # Average memory access latency per DRAM burst
system.mem_ctrls.dram.readRowHits                5878                       # Number of row buffer hits during reads
system.mem_ctrls.dram.writeRowHits                 38                       # Number of row buffer hits during writes
system.mem_ctrls.dram.readRowHitRate            83.58                       # Row buffer hit rate for reads
system.mem_ctrls.dram.writeRowHitRate           77.55                       # Row buffer hit rate for writes
system.mem_ctrls.dram.bytesPerActivate::samples         1156                       # Bytes accessed per row activation
system.mem_ctrls.dram.bytesPerActivate::mean   388.927336                       # Bytes accessed per row activation
system.mem_ctrls.dram.bytesPerActivate::gmean   275.395696                       # Bytes accessed per row activation
system.mem_ctrls.dram.bytesPerActivate::stdev   314.044095                       # Bytes accessed per row activation
system.mem_ctrls.dram.bytesPerActivate::0-127          171     14.79%     14.79% # Bytes accessed per row activation
system.mem_ctrls.dram.bytesPerActivate::128-255          370     32.01%     46.80% # Bytes accessed per row activation
system.mem_ctrls.dram.bytesPerActivate::256-383          102      8.82%     55.62% # Bytes accessed per row activation
system.mem_ctrls.dram.bytesPerActivate::384-511          194     16.78%     72.40% # Bytes accessed per row activation
system.mem_ctrls.dram.bytesPerActivate::512-639           79      6.83%     79.24% # Bytes accessed per row activation
system.mem_ctrls.dram.bytesPerActivate::640-767           30      2.60%     81.83% # Bytes accessed per row activation
system.mem_ctrls.dram.bytesPerActivate::768-895           40      3.46%     85.29% # Bytes accessed per row activation
system.mem_ctrls.dram.bytesPerActivate::896-1023           16      1.38%     86.68% # Bytes accessed per row activation
system.mem_ctrls.dram.bytesPerActivate::1024-1151          154     13.32%    100.00% # Bytes accessed per row activation
system.mem_ctrls.dram.bytesPerActivate::total         1156                       # Bytes accessed per row activation
system.mem_ctrls.dram.bytesRead                450112                       # Total number of bytes read from DRAM
system.mem_ctrls.dram.bytesWritten               3136                       # Total number of bytes written to DRAM
system.mem_ctrls.dram.avgRdBW               86.674160                       # Average DRAM read bandwidth in MiBytes/s
system.mem_ctrls.dram.avgWrBW                0.603872                       # Average DRAM write bandwidth in MiBytes/s
system.mem_ctrls.dram.peakBW                 12800.00                       # Theoretical peak bandwidth in MiByte/s
system.mem_ctrls.dram.busUtil                    0.68                       # Data bus utilization in percentage
system.mem_ctrls.dram.busUtilRead                0.68                       # Data bus utilization in percentage for reads
system.mem_ctrls.dram.busUtilWrite               0.00                       # Data bus utilization in percentage for writes
system.mem_ctrls.dram.pageHitRate               83.54                       # Row buffer hit rate, read and write combined
system.mem_ctrls.dram.power_state.pwrStateResidencyTicks::UNDEFINED   5193151000                       # Cumulative time (in ticks) in various power states
system.mem_ctrls.dram.rank0.actEnergy         4926600                       # Energy for activate commands per rank (pJ)
system.mem_ctrls.dram.rank0.preEnergy         2599575                       # Energy for precharge commands per rank (pJ)
system.mem_ctrls.dram.rank0.readEnergy       29031240                       # Energy for read commands per rank (pJ)
system.mem_ctrls.dram.rank0.writeEnergy        208800                       # Energy for write commands per rank (pJ)
system.mem_ctrls.dram.rank0.refreshEnergy 409350240.000000                       # Energy for refresh commands per rank (pJ)
system.mem_ctrls.dram.rank0.actBackEnergy    924134730                       # Energy for active background per rank (pJ)
system.mem_ctrls.dram.rank0.preBackEnergy   1215951360                       # Energy for precharge background per rank (pJ)
system.mem_ctrls.dram.rank0.actPowerDownEnergy            0                       # Energy for active power-down per rank (pJ)
system.mem_ctrls.dram.rank0.prePowerDownEnergy            0                       # Energy for precharge power-down per rank (pJ)
system.mem_ctrls.dram.rank0.selfRefreshEnergy            0                       # Energy for self refresh per rank (pJ)
system.mem_ctrls.dram.rank0.totalEnergy    2586202545                       # Total energy per rank (pJ)
system.mem_ctrls.dram.rank0.averagePower   498.002570                       # Core power per rank (mW)
system.mem_ctrls.dram.rank0.totalIdleTime            0                       # Total Idle time Per DRAM Rank
system.mem_ctrls.dram.rank0.pwrStateTime::IDLE   3151924000                       # Time in different power states
system.mem_ctrls.dram.rank0.pwrStateTime::REF    173160000                       # Time in different power states
system.mem_ctrls.dram.rank0.pwrStateTime::SREF            0                       # Time in different power states
system.mem_ctrls.dram.rank0.pwrStateTime::PRE_PDN            0                       # Time in different power states
system.mem_ctrls.dram.rank0.pwrStateTime::ACT   1868067000                       # Time in different power states
system.mem_ctrls.dram.rank0.pwrStateTime::ACT_PDN            0                       # Time in different power states
system.mem_ctrls.dram.rank1.actEnergy         3398640                       # Energy for activate commands per rank (pJ)
system.mem_ctrls.dram.rank1.preEnergy         1787445                       # Energy for precharge commands per rank (pJ)
system.mem_ctrls.dram.rank1.readEnergy       21184380                       # Energy for read commands per rank (pJ)
system.mem_ctrls.dram.rank1.writeEnergy         46980                       # Energy for write commands per rank (pJ)
system.mem_ctrls.dram.rank1.refreshEnergy 409350240.000000                       # Energy for refresh commands per rank (pJ)
system.mem_ctrls.dram.rank1.actBackEnergy    700786500                       # Energy for active background per rank (pJ)
system.mem_ctrls.dram.rank1.preBackEnergy   1404034080                       # Energy for precharge background per rank (pJ)
system.mem_ctrls.dram.rank1.actPowerDownEnergy            0                       # Energy for active power-down per rank (pJ)
system.mem_ctrls.dram.rank1.prePowerDownEnergy            0                       # Energy for precharge power-down per rank (pJ)
system.mem_ctrls.dram.rank1.selfRefreshEnergy            0                       # Energy for self refresh per rank (pJ)
system.mem_ctrls.dram.rank1.totalEnergy    2540588265                       # Total energy per rank (pJ)
system.mem_ctrls.dram.rank1.averagePower   489.219024                       # Core power per rank (mW)
system.mem_ctrls.dram.rank1.totalIdleTime            0                       # Total Idle time Per DRAM Rank
system.mem_ctrls.dram.rank1.pwrStateTime::IDLE   3643594250                       # Time in different power states
system.mem_ctrls.dram.rank1.pwrStateTime::REF    173160000                       # Time in different power states
system.mem_ctrls.dram.rank1.pwrStateTime::SREF            0                       # Time in different power states
system.mem_ctrls.dram.rank1.pwrStateTime::PRE_PDN            0                       # Time in different power states
system.mem_ctrls.dram.rank1.pwrStateTime::ACT   1376396750                       # Time in different power states
system.mem_ctrls.dram.rank1.pwrStateTime::ACT_PDN            0                       # Time in different power states
system.mem_ctrls.power_state.pwrStateResidencyTicks::UNDEFINED   5193151000                       # Cumulative time (in ticks) in various power states
system.membus.trans_dist::ReadResp               3479                       # Transaction distribution
system.membus.trans_dist::WritebackDirty           67                       # Transaction distribution
system.membus.trans_dist::CleanEvict              172                       # Transaction distribution
system.membus.trans_dist::ReadExReq              3559                       # Transaction distribution
system.membus.trans_dist::ReadExResp             3559                       # Transaction distribution
system.membus.trans_dist::ReadSharedReq          3479                       # Transaction distribution
system.membus.pkt_count_system.l2.mem_side_port::system.mem_ctrls.port        14315                       # Packet count per connected requestor and responder (bytes)
system.membus.pkt_count_system.l2.mem_side_port::total        14315                       # Packet count per connected requestor and responder (bytes)
system.membus.pkt_count::total                  14315                       # Packet count per connected requestor and responder (bytes)
system.membus.pkt_size_system.l2.mem_side_port::system.mem_ctrls.port       454720                       # Cumulative packet size per connected requestor and responder (bytes)
system.membus.pkt_size_system.l2.mem_side_port::total       454720                       # Cumulative packet size per connected requestor and responder (bytes)
system.membus.pkt_size::total                  454720                       # Cumulative packet size per connected requestor and responder (bytes)
system.membus.snoops                                0                       # Total snoops (count)
system.membus.snoopTraffic                          0                       # Total snoop traffic (bytes)
system.membus.snoop_fanout::samples              7038                       # Request fanout histogram
system.membus.snoop_fanout::mean                    0                       # Request fanout histogram
system.membus.snoop_fanout::stdev                   0                       # Request fanout histogram
system.membus.snoop_fanout::underflows              0      0.00%      0.00% # Request fanout histogram
system.membus.snoop_fanout::0                    7038    100.00%    100.00% # Request fanout histogram
system.membus.snoop_fanout::1                       0      0.00%    100.00% # Request fanout histogram
system.membus.snoop_fanout::overflows               0      0.00%    100.00% # Request fanout histogram
system.membus.snoop_fanout::min_value               0                       # Request fanout histogram
system.membus.snoop_fanout::max_value               0                       # Request fanout histogram
system.membus.snoop_fanout::total                7038                       # Request fanout histogram
system.membus.power_state.pwrStateResidencyTicks::UNDEFINED   5193151000                       # Cumulative time (in ticks) in various power states
system.membus.reqLayer0.occupancy             3772500                       # Layer occupancy (ticks)
system.membus.reqLayer0.utilization               0.1                       # Layer utilization (%)
system.membus.respLayer1.occupancy           19101500                       # Layer occupancy (ticks)
system.membus.respLayer1.utilization              0.4                       # Layer utilization (%)
system.tol2bus.trans_dist::ReadResp              6267                       # Transaction distribution
system.tol2bus.trans_dist::WritebackDirty         5894                       # Transaction distribution
system.tol2bus.trans_dist::WritebackClean          903                       # Transaction distribution
system.tol2bus.trans_dist::CleanEvict            1904                       # Transaction distribution
system.tol2bus.trans_dist::UpgradeReq               1                       # Transaction distribution
system.tol2bus.trans_dist::UpgradeResp              1                       # Transaction distribution
system.tol2bus.trans_dist::ReadExReq             3647                       # Transaction distribution
system.tol2bus.trans_dist::ReadExResp            3647                       # Transaction distribution
system.tol2bus.trans_dist::ReadCleanReq          1416                       # Transaction distribution
system.tol2bus.trans_dist::ReadSharedReq         4852                       # Transaction distribution
system.tol2bus.pkt_count_system.cpu.icache.mem_side_port::system.l2.cpu_side_port         3729                       # Packet count per connected requestor and responder (bytes)
system.tol2bus.pkt_count_system.cpu.dcache.mem_side_port::system.l2.cpu_side_port        24475                       # Packet count per connected requestor and responder (bytes)
system.tol2bus.pkt_count::total                 28204                       # Packet count per connected requestor and responder (bytes)
system.tol2bus.pkt_size_system.cpu.icache.mem_side_port::system.l2.cpu_side_port       148032                       # Cumulative packet size per connected requestor and responder (bytes)
system.tol2bus.pkt_size_system.cpu.dcache.mem_side_port::system.l2.cpu_side_port       916864                       # Cumulative packet size per connected requestor and responder (bytes)
system.tol2bus.pkt_size::total                1064896                       # Cumulative packet size per connected requestor and responder (bytes)
system.tol2bus.snoops                             328                       # Total snoops (count)
system.tol2bus.snoopTraffic                      4608                       # Total snoop traffic (bytes)
system.tol2bus.snoop_fanout::samples            10239                       # Request fanout histogram
system.tol2bus.snoop_fanout::mean            0.009767                       # Request fanout histogram
system.tol2bus.snoop_fanout::stdev           0.098347                       # Request fanout histogram
system.tol2bus.snoop_fanout::underflows             0      0.00%      0.00% # Request fanout histogram
system.tol2bus.snoop_fanout::0                  10139     99.02%     99.02% # Request fanout histogram
system.tol2bus.snoop_fanout::1                    100      0.98%    100.00% # Request fanout histogram
system.tol2bus.snoop_fanout::2                      0      0.00%    100.00% # Request fanout histogram
system.tol2bus.snoop_fanout::3                      0      0.00%    100.00% # Request fanout histogram
system.tol2bus.snoop_fanout::4                      0      0.00%    100.00% # Request fanout histogram
system.tol2bus.snoop_fanout::overflows              0      0.00%    100.00% # Request fanout histogram
system.tol2bus.snoop_fanout::min_value              0                       # Request fanout histogram
system.tol2bus.snoop_fanout::max_value              1                       # Request fanout histogram
system.tol2bus.snoop_fanout::total              10239                       # Request fanout histogram
system.tol2bus.power_state.pwrStateResidencyTicks::UNDEFINED   5193151000                       # Cumulative time (in ticks) in various power states
system.tol2bus.reqLayer0.occupancy           15877000                       # Layer occupancy (ticks)
system.tol2bus.reqLayer0.utilization              0.3                       # Layer utilization (%)
system.tol2bus.respLayer0.occupancy           2122999                       # Layer occupancy (ticks)
system.tol2bus.respLayer0.utilization             0.0                       # Layer utilization (%)
system.tol2bus.respLayer1.occupancy          12749499                       # Layer occupancy (ticks)
system.tol2bus.respLayer1.utilization             0.2                       # Layer utilization (%)
system.voltage_domain.voltage                       1                       # Voltage in Volts

---------- End Simulation Statistics   ----------
